data/nesta/nesta_case1397sp_eir.m
%%%%%%%%%%%%%%%%%%%%%%%%%%%%%%%%%%%%%%%%%%%%%%%%%%%%%%%%%%%%%%%%%%%%%%%%%%%
%%%%                                                                  %%%%%
%%%%      NICTA Energy System Test Case Archive (NESTA) - v0.1.5      %%%%%
%%%%              Optimal Power Flow - Typical Operation              %%%%%
%%%%                       30 - October - 2014                        %%%%%
%%%%                                                                  %%%%%
%%%%%%%%%%%%%%%%%%%%%%%%%%%%%%%%%%%%%%%%%%%%%%%%%%%%%%%%%%%%%%%%%%%%%%%%%%%
%
%  EIRGrid - Summer Peak 2013
%
%  Based on data from:
%    "Ten Year Transmission Forecast Statement 2013"
%    http://www.eirgrid.com/transmission/transmissionforecaststatement/
%    Accessed: 25/8/2014
%  
%  WARNING: This is a preliminary translation from a PSS/E-30 file.
%    The network produces AC Power Flow solutions, but has not been 
%    validated to PSS/E.  See the end of this file for detailed 
%    translation notes.
%
function mpc = nesta_case1397sp_eir
mpc.version = '2';
mpc.baseMVA = 100.0;

%% bus data
%	bus_i	type	Pd	Qd	Gs	Bs	area	Vm	Va	baseKV	zone	Vmax	Vmin
mpc.bus = [
	10	 1	 42.9	 29.49	 0.0	 0.0	 2	     1.0423	     0.0000	 38.0	 1	     1.1500	     0.8500;
	11	 1	 28.75	 20.42	 0.0	 0.0	 2	     1.0571	     0.0000	 38.0	 1	     1.1500	     0.8500;
	12	 1	 4.87	 1.6	 0.0	 0.0	 1	     1.0533	     0.0000	 38.0	 1	     1.1500	     0.8500;
	13	 1	 26.22	 8.59	 0.0	 0.0	 1	     1.0580	     0.0000	 38.0	 1	     1.1500	     0.8500;
	14	 1	 40.5	 13.32	 0.0	 0.0	 2	     1.0467	     0.0000	 38.0	 1	     1.1500	     0.8500;
	15	 1	 42.52	 14.0	 0.0	 0.0	 2	     1.0621	     0.0000	 38.0	 1	     1.1500	     0.8500;
	1021	 1	 0.0	 0.0	 0.0	 0.0	 4	     1.0484	     0.0000	 110.0	 1	     1.1500	     0.8500;
	1041	 1	 1.28	 0.06	 0.0	 0.0	 3	     1.0406	     0.0000	 110.0	 1	     1.1500	     0.8500;
	1042	 1	 0.0	 0.0	 0.0	 0.0	 3	     1.0400	     0.0000	 220.0	 1	     1.1500	     0.8500;
	1052	 1	 0.0	 0.0	 0.0	 0.0	 3	     1.0407	     0.0000	 220.0	 1	     1.1500	     0.8500;
	1061	 1	 0.0	 0.0	 0.0	 0.0	 9	     1.0464	     0.0000	 110.0	 1	     1.1500	     0.8500;
	1062	 1	 0.0	 0.0	 0.0	 0.0	 3	     1.0400	     0.0000	 220.0	 1	     1.1500	     0.8500;
	1071	 1	 0.0	 0.0	 0.0	 0.0	 4	     1.0639	     0.0000	 110.0	 1	     1.1500	     0.8500;
	1072	 1	 0.0	 0.0	 0.0	 0.0	 3	     1.0400	     0.0000	 220.0	 1	     1.1500	     0.8500;
	1081	 1	 0.0	 0.0	 0.0	 0.0	 7	     1.0489	     0.0000	 110.0	 1	     1.1500	     0.8500;
	1101	 1	 16.62	 4.98	 0.0	 0.0	 5	     1.0428	     0.0000	 110.0	 1	     1.1500	     0.8500;
	1121	 1	 0.0	 0.0	 0.0	 0.0	 6	     1.0621	     0.0000	 110.0	 1	     1.1500	     0.8500;
	1122	 1	 0.0	 0.0	 0.0	 0.0	 6	     1.0590	     0.0000	 220.0	 1	     1.1500	     0.8500;
	1141	 1	 0.0	 0.0	 0.0	 0.0	 9	     1.0695	     0.0000	 110.0	 1	     1.1500	     0.8500;
	1161	 1	 0.0	 0.0	 0.0	 0.0	 7	     1.0500	     0.0000	 110.0	 1	     1.1500	     0.8500;
	1181	 1	 0.0	 0.0	 0.0	 0.0	 10	     1.0408	     0.0000	 110.0	 1	     1.1500	     0.8500;
	1201	 1	 0.0	 0.0	 0.0	 0.0	 1	     1.0590	     0.0000	 110.0	 1	     1.1500	     0.8500;
	1221	 1	 0.0	 0.0	 0.0	 0.0	 8	     1.0485	     0.0000	 110.0	 1	     1.1500	     0.8500;
	1231	 1	 0.0	 0.0	 0.0	 0.0	 6	     1.0570	     0.0000	 110.0	 1	     1.1500	     0.8500;
	1251	 1	 0.0	 0.0	 0.0	 0.0	 4	     1.0500	     0.0000	 110.0	 1	     1.1500	     0.8500;
	1271	 1	 0.0	 0.0	 0.0	 0.0	 10	     1.0471	     0.0000	 110.0	 1	     1.1500	     0.8500;
	1281	 1	 0.0	 0.0	 0.0	 0.0	 3	     1.0455	     0.0000	 110.0	 1	     1.1500	     0.8500;
	1301	 1	 0.0	 0.0	 0.0	 0.0	 6	     1.0592	     0.0000	 110.0	 1	     1.1500	     0.8500;
	1321	 1	 0.0	 0.0	 0.0	 0.0	 8	     1.0499	     0.0000	 110.0	 1	     1.1500	     0.8500;
	1341	 1	 0.0	 0.0	 0.0	 0.0	 9	     1.0060	     0.0000	 110.0	 1	     1.1500	     0.8500;
	1351	 1	 0.0	 0.0	 0.0	 0.0	 8	     1.0533	     0.0000	 110.0	 1	     1.1500	     0.8500;
	1361	 1	 0.0	 0.0	 0.0	 0.0	 5	     1.0382	     0.0000	 110.0	 1	     1.1500	     0.8500;
	1381	 1	 0.0	 0.0	 0.0	 0.0	 3	     1.0388	     0.0000	 110.0	 1	     1.1500	     0.8500;
	1391	 1	 0.0	 0.0	 0.0	 0.0	 3	     1.0488	     0.0000	 110.0	 1	     1.1500	     0.8500;
	1401	 1	 0.0	 0.0	 0.0	 0.0	 9	     1.0425	     0.0000	 110.0	 1	     1.1500	     0.8500;
	1421	 1	 0.0	 0.0	 0.0	 0.0	 1	     1.0571	     0.0000	 110.0	 1	     1.1500	     0.8500;
	1441	 1	 0.0	 0.0	 0.0	 0.0	 3	     1.0395	     0.0000	 110.0	 1	     1.1500	     0.8500;
	1451	 1	 0.0	 0.0	 0.0	 0.0	 1	     1.0543	     0.0000	 110.0	 1	     1.1500	     0.8500;
	1461	 1	 0.0	 0.0	 0.0	 0.0	 5	     1.0374	     0.0000	 110.0	 1	     1.1500	     0.8500;
	1481	 1	 0.0	 0.0	 0.0	 0.0	 5	     1.0339	     0.0000	 110.0	 1	     1.1500	     0.8500;
	1501	 1	 0.0	 0.0	 0.0	 0.0	 3	     1.0393	     0.0000	 110.0	 1	     1.1500	     0.8500;
	1541	 1	 0.0	 0.0	 0.0	 0.0	 6	     1.0556	     0.0000	 110.0	 1	     1.1500	     0.8500;
	1551	 1	 0.0	 0.0	 0.0	 0.0	 3	     1.0500	     0.0000	 110.0	 1	     1.1500	     0.8500;
	1581	 1	 0.0	 0.0	 0.0	 0.0	 1	     1.0584	     0.0000	 110.0	 1	     1.1500	     0.8500;
	1601	 1	 0.0	 0.0	 0.0	 0.0	 3	     1.0433	     0.0000	 110.0	 1	     1.1500	     0.8500;
	1602	 1	 0.0	 0.0	 0.0	 0.0	 3	     1.0479	     0.0000	 220.0	 1	     1.1500	     0.8500;
	1611	 1	 0.0	 0.0	 0.0	 0.0	 7	     1.0490	     0.0000	 110.0	 1	     1.1500	     0.8500;
	1621	 1	 0.0	 0.0	 0.0	 0.0	 3	     1.0330	     0.0000	 110.0	 1	     1.1500	     0.8500;
	1631	 1	 0.0	 0.0	 0.0	 0.0	 9	     1.0500	     0.0000	 110.0	 1	     1.1500	     0.8500;
	1641	 1	 0.0	 0.0	 0.0	 0.0	 9	     1.0583	     0.0000	 110.0	 1	     1.1500	     0.8500;
	1642	 1	 0.0	 0.0	 0.0	 0.0	 9	     1.0519	     0.0000	 220.0	 1	     1.1500	     0.8500;
	1651	 1	 0.0	 0.0	 0.0	 0.0	 7	     1.0548	     0.0000	 110.0	 1	     1.1500	     0.8500;
	1661	 1	 0.0	 0.0	 0.0	 0.0	 9	     1.0500	     0.0000	 110.0	 1	     1.1500	     0.8500;
	1681	 1	 0.0	 0.0	 0.0	 0.0	 3	     1.0393	     0.0000	 110.0	 1	     1.1500	     0.8500;
	1691	 1	 0.0	 0.0	 0.0	 0.0	 1	     1.0589	     0.0000	 110.0	 1	     1.1500	     0.8500;
	1701	 1	 0.0	 0.0	 0.0	 0.0	 9	     1.0205	     0.0000	 110.0	 1	     1.1500	     0.8500;
	1711	 1	 0.0	 0.0	 0.0	 0.0	 1	     1.0732	     0.0000	 110.0	 1	     1.1500	     0.8500;
	1721	 1	 0.0	 0.0	 0.0	 0.0	 5	     1.0507	     0.0000	 110.0	 1	     1.1500	     0.8500;
	1731	 1	 0.0	 0.0	 0.0	 0.0	 1	     1.0732	     0.0000	 110.0	 1	     1.1500	     0.8500;
	1741	 1	 0.0	 0.0	 0.0	 0.0	 2	     1.0591	     0.0000	 110.0	 1	     1.1500	     0.8500;
	1742	 1	 0.0	 0.0	 0.0	 0.0	 2	     1.0686	     0.0000	 220.0	 1	     1.1500	     0.8500;
	1761	 1	 0.0	 0.0	 0.0	 0.0	 9	     1.0205	     0.0000	 110.0	 1	     1.1500	     0.8500;
	1781	 1	 0.0	 0.0	 0.0	 0.0	 7	     1.0496	     0.0000	 110.0	 1	     1.1500	     0.8500;
	1801	 1	 0.0	 0.0	 0.0	 0.0	 1	     1.0592	     0.0000	 110.0	 1	     1.1500	     0.8500;
	1821	 1	 0.0	 0.0	 0.0	 0.0	 9	     1.0527	     0.0000	 110.0	 1	     1.1500	     0.8500;
	1841	 1	 0.0	 0.0	 0.0	 0.0	 6	     1.0557	     0.0000	 110.0	 1	     1.1500	     0.8500;
	1861	 1	 0.0	 0.0	 0.0	 0.0	 9	     1.0460	     0.0000	 110.0	 1	     1.1500	     0.8500;
	1871	 1	 0.0	 0.0	 0.0	 0.0	 2	     1.0565	     0.0000	 110.0	 1	     1.1500	     0.8500;
	1881	 1	 0.0	 0.0	 0.0	 0.0	 3	     1.0288	     0.0000	 110.0	 1	     1.1500	     0.8500;
	1901	 1	 0.0	 0.0	 0.0	 0.0	 6	     1.0554	     0.0000	 110.0	 1	     1.1500	     0.8500;
	1921	 1	 0.0	 0.0	 0.0	 0.0	 3	     1.0370	     0.0000	 110.0	 1	     1.1500	     0.8500;
	1931	 1	 0.0	 0.0	 0.0	 0.0	 9	     1.0500	     0.0000	 110.0	 1	     1.1500	     0.8500;
	1941	 1	 0.0	 0.0	 0.0	 0.0	 8	     1.0750	     0.0000	 110.0	 1	     1.1500	     0.8500;
	1951	 1	 0.0	 0.0	 0.0	 0.0	 9	     1.0380	     0.0000	 110.0	 1	     1.1500	     0.8500;
	1961	 1	 0.0	 0.0	 0.0	 0.0	 3	     1.0340	     0.0000	 110.0	 1	     1.1500	     0.8500;
	1971	 1	 0.0	 0.0	 0.0	 0.0	 7	     1.0500	     0.0000	 110.0	 1	     1.1500	     0.8500;
	1981	 1	 0.0	 0.0	 0.0	 0.0	 9	     1.0302	     0.0000	 110.0	 1	     1.1500	     0.8500;
	1991	 1	 0.0	 0.0	 0.0	 0.0	 6	     1.0555	     0.0000	 110.0	 1	     1.1500	     0.8500;
	2001	 1	 0.0	 0.0	 0.0	 0.0	 5	     1.0389	     0.0000	 110.0	 1	     1.1500	     0.8500;
	2002	 1	 0.0	 0.0	 0.0	 0.0	 5	     1.0419	     0.0000	 220.0	 1	     1.1500	     0.8500;
	2021	 1	 0.0	 0.0	 0.0	 0.0	 1	     1.0378	     0.0000	 110.0	 1	     1.1500	     0.8500;
	2041	 1	 0.0	 0.0	 0.0	 0.0	 2	     1.0570	     0.0000	 110.0	 1	     1.1500	     0.8500;
	2042	 1	 0.0	 0.0	 0.0	 0.0	 2	     1.0750	     0.0000	 220.0	 1	     1.1500	     0.8500;
	2052	 1	 0.0	 0.0	 0.0	 0.0	 2	     1.0750	     0.0000	 220.0	 1	     1.1500	     0.8500;
	2081	 4	 0.0	 0.0	 0.0	 0.0	 3	     1.0000	     0.0000	 110.0	 1	     1.1500	     0.8500;
	2101	 1	 0.0	 0.0	 0.0	 0.0	 10	     1.0419	     0.0000	 110.0	 1	     1.1500	     0.8500;
	2121	 1	 0.0	 0.0	 0.0	 0.0	 4	     1.0440	     0.0000	 110.0	 1	     1.1500	     0.8500;
	2131	 1	 0.0	 0.0	 0.0	 0.0	 3	     1.0512	     0.0000	 110.0	 1	     1.1500	     0.8500;
	2141	 1	 0.0	 0.0	 0.0	 0.0	 5	     1.0300	     0.0000	 110.0	 1	     1.1500	     0.8500;
	2161	 1	 0.0	 0.0	 0.0	 0.0	 5	     1.0436	     0.0000	 110.0	 1	     1.1500	     0.8500;
	2181	 1	 0.0	 0.0	 0.0	 0.0	 10	     1.0382	     0.0000	 110.0	 1	     1.1500	     0.8500;
	2202	 1	 0.0	 0.0	 0.0	 0.0	 2	     1.0687	     0.0000	 220.0	 1	     1.1500	     0.8500;
	2204	 1	 0.0	 0.0	 0.0	 0.0	 2	     1.0127	     0.0000	 380.0	 1	     1.1500	     0.8500;
	2221	 1	 0.0	 0.0	 0.0	 0.0	 3	     1.0404	     0.0000	 110.0	 1	     1.1500	     0.8500;
	2231	 1	 0.0	 0.0	 0.0	 0.0	 4	     1.0657	     0.0000	 110.0	 1	     1.1500	     0.8500;
	2241	 1	 0.0	 0.0	 0.0	 0.0	 5	     1.0645	     0.0000	 110.0	 1	     1.1500	     0.8500;
	2251	 1	 0.0	 0.0	 0.0	 0.0	 1	     1.0736	     0.0000	 110.0	 1	     1.1500	     0.8500;
	2261	 1	 0.0	 0.0	 0.0	 0.0	 8	     1.0293	     0.0000	 110.0	 1	     1.1500	     0.8500;
	2281	 1	 0.0	 0.0	 0.0	 0.0	 9	     1.0437	     0.0000	 110.0	 1	     1.1500	     0.8500;
	2301	 1	 0.0	 0.0	 0.0	 0.0	 8	     1.0402	     0.0000	 110.0	 1	     1.1500	     0.8500;
	2321	 1	 0.0	 0.0	 0.0	 0.0	 9	     0.9879	     0.0000	 110.0	 1	     1.1500	     0.8500;
	2361	 1	 0.0	 0.0	 0.0	 0.0	 4	     1.0441	     0.0000	 110.0	 1	     1.1500	     0.8500;
	2481	 1	 0.0	 0.0	 0.0	 0.0	 2	     1.0548	     0.0000	 110.0	 1	     1.1500	     0.8500;
	2491	 1	 0.0	 0.0	 0.0	 0.0	 2	     1.0547	     0.0000	 110.0	 1	     1.1500	     0.8500;
	2521	 1	 0.0	 0.0	 0.0	 0.0	 9	     1.0471	     0.0000	 110.0	 1	     1.1500	     0.8500;
	2522	 1	 0.0	 0.0	 0.0	 0.0	 9	     1.0477	     0.0000	 220.0	 1	     1.1500	     0.8500;
	2541	 1	 0.0	 0.0	 0.0	 0.0	 1	     1.0712	     0.0000	 110.0	 1	     1.1500	     0.8500;
	2551	 1	 0.0	 0.0	 0.0	 0.0	 1	     1.0680	     0.0000	 110.0	 1	     1.1500	     0.8500;
	2561	 1	 0.0	 0.0	 0.0	 0.0	 2	     1.0605	     0.0000	 110.0	 1	     1.1500	     0.8500;
	2562	 1	 0.0	 0.0	 0.0	 0.0	 2	     1.0750	     0.0000	 220.0	 1	     1.1500	     0.8500;
	2563	 1	 0.0	 0.0	 0.0	 0.0	 2	     1.0750	     0.0000	 220.0	 1	     1.1500	     0.8500;
	2571	 1	 0.0	 0.0	 0.0	 0.0	 2	     1.0739	     0.0000	 110.0	 1	     1.1500	     0.8500;
	2581	 1	 0.0	 0.0	 0.0	 0.0	 2	     1.0557	     0.0000	 110.0	 1	     1.1500	     0.8500;
	2671	 1	 0.0	 0.0	 0.0	 0.0	 9	     1.0529	     0.0000	 110.0	 1	     1.1500	     0.8500;
	2681	 1	 0.0	 0.0	 0.0	 0.0	 9	     1.0490	     0.0000	 110.0	 1	     1.1500	     0.8500;
	2701	 1	 0.0	 0.0	 0.0	 0.0	 1	     1.0582	     0.0000	 110.0	 1	     1.1500	     0.8500;
	2721	 1	 0.0	 0.0	 0.0	 0.0	 2	     1.0547	     0.0000	 110.0	 1	     1.1500	     0.8500;
	2731	 1	 0.0	 0.0	 0.0	 0.0	 7	     1.0501	     0.0000	 110.0	 1	     1.1500	     0.8500;
	2741	 1	 0.0	 0.0	 0.0	 0.0	 6	     1.0403	     0.0000	 110.0	 1	     1.1500	     0.8500;
	2742	 1	 0.0	 0.0	 0.0	 0.0	 6	     1.0453	     0.0000	 220.0	 1	     1.1500	     0.8500;
	2761	 1	 0.0	 0.0	 0.0	 0.0	 1	     1.0730	     0.0000	 110.0	 1	     1.1500	     0.8500;
	2771	 1	 0.0	 0.0	 0.0	 0.0	 7	     1.0504	     0.0000	 110.0	 1	     1.1500	     0.8500;
	2780	 1	 0.0	 0.0	 0.0	 0.0	 9	     1.0506	     0.0000	 110.0	 1	     1.1500	     0.8500;
	2781	 1	 0.0	 0.0	 0.0	 0.0	 9	     1.0506	     0.0000	 110.0	 1	     1.1500	     0.8500;
	2801	 1	 0.0	 0.0	 0.0	 0.0	 9	     1.0015	     0.0000	 110.0	 1	     1.1500	     0.8500;
	2821	 1	 0.0	 0.0	 0.0	 0.0	 9	     1.0319	     0.0000	 110.0	 1	     1.1500	     0.8500;
	2841	 1	 0.0	 0.0	 0.0	 0.0	 10	     1.0368	     0.0000	 110.0	 1	     1.1500	     0.8500;
	2842	 1	 0.0	 0.0	 0.0	 0.0	 10	     1.0478	     0.0000	 220.0	 1	     1.1500	     0.8500;
	2852	 1	 0.0	 0.0	 0.0	 0.0	 3	     1.0406	     0.0000	 220.0	 1	     1.1500	     0.8500;
	2861	 1	 0.0	 0.0	 0.0	 0.0	 1	     1.0384	     0.0000	 110.0	 1	     1.1500	     0.8500;
	2881	 1	 0.0	 0.0	 0.0	 0.0	 3	     1.0259	     0.0000	 110.0	 1	     1.1500	     0.8500;
	2941	 1	 0.0	 0.0	 0.0	 0.0	 1	     1.0714	     0.0000	 110.0	 1	     1.1500	     0.8500;
	2951	 1	 0.0	 0.0	 0.0	 0.0	 1	     1.0682	     0.0000	 110.0	 1	     1.1500	     0.8500;
	2962	 1	 0.0	 0.0	 0.0	 0.0	 2	     1.0751	     0.0000	 220.0	 1	     1.1500	     0.8500;
	2972	 1	 0.0	 0.0	 0.0	 0.0	 2	     1.0765	     0.0000	 220.0	 1	     1.1500	     0.8500;
	3061	 1	 0.0	 0.0	 0.0	 0.0	 3	     1.0336	     0.0000	 110.0	 1	     1.1500	     0.8500;
	3081	 1	 0.0	 0.0	 0.0	 0.0	 2	     1.0685	     0.0000	 110.0	 1	     1.1500	     0.8500;
	3082	 1	 0.0	 0.0	 0.0	 0.0	 2	     1.0731	     0.0000	 220.0	 1	     1.1500	     0.8500;
	3091	 1	 0.0	 0.0	 0.0	 0.0	 2	     1.0430	     0.0000	 110.0	 1	     1.1500	     0.8500;
	3101	 1	 0.0	 0.0	 0.0	 0.0	 5	     1.0435	     0.0000	 110.0	 1	     1.1500	     0.8500;
	3122	 1	 0.0	 0.0	 0.0	 0.0	 2	     1.0750	     0.0000	 220.0	 1	     1.1500	     0.8500;
	3200	 1	 0.0	 0.0	 0.0	 0.0	 3	     1.0411	     0.0000	 110.0	 1	     1.1500	     0.8500;
	3201	 1	 0.0	 0.0	 0.0	 0.0	 3	     1.0376	     0.0000	 110.0	 1	     1.1500	     0.8500;
	3202	 1	 0.0	 0.0	 0.0	 0.0	 3	     1.0411	     0.0000	 220.0	 1	     1.1500	     0.8500;
	3203	 1	 0.0	 0.0	 0.0	 0.0	 3	     1.0411	     0.0000	 220.0	 1	     1.1500	     0.8500;
	3209	 1	 0.0	 0.0	 0.0	 0.0	 3	     1.0376	     0.0000	 110.0	 1	     1.1500	     0.8500;
	3221	 1	 0.0	 0.0	 0.0	 0.0	 3	     1.0321	     0.0000	 110.0	 1	     1.1500	     0.8500;
	3241	 1	 0.0	 0.0	 0.0	 0.0	 8	     1.0582	     0.0000	 110.0	 1	     1.1500	     0.8500;
	3261	 1	 0.0	 0.0	 0.0	 0.0	 6	     1.0347	     0.0000	 110.0	 1	     1.1500	     0.8500;
	3281	 1	 0.0	 0.0	 0.0	 0.0	 7	     1.0492	     0.0000	 110.0	 1	     1.1500	     0.8500;
	3282	 1	 0.0	 0.0	 0.0	 0.0	 7	     1.0444	     0.0000	 220.0	 1	     1.1500	     0.8500;
	3301	 1	 0.0	 0.0	 0.0	 0.0	 7	     1.0426	     0.0000	 110.0	 1	     1.1500	     0.8500;
	3321	 1	 0.0	 0.0	 0.0	 0.0	 10	     1.0283	     0.0000	 110.0	 1	     1.1500	     0.8500;
	3341	 1	 0.0	 0.0	 0.0	 0.0	 6	     1.0594	     0.0000	 110.0	 1	     1.1500	     0.8500;
	3342	 1	 0.0	 0.0	 0.0	 0.0	 6	     1.0471	     0.0000	 220.0	 1	     1.1500	     0.8500;
	3361	 1	 0.0	 0.0	 0.0	 0.0	 9	     0.9799	     0.0000	 110.0	 1	     1.1500	     0.8500;
	3381	 1	 0.0	 0.0	 0.0	 0.0	 8	     1.0312	     0.0000	 110.0	 1	     1.1500	     0.8500;
	3401	 1	 0.0	 0.0	 0.0	 0.0	 5	     1.0346	     0.0000	 110.0	 1	     1.1500	     0.8500;
	3421	 1	 0.0	 0.0	 0.0	 0.0	 1	     1.0732	     0.0000	 110.0	 1	     1.1500	     0.8500;
	3431	 1	 0.0	 0.0	 0.0	 0.0	 1	     1.0381	     0.0000	 110.0	 1	     1.1500	     0.8500;
	3501	 1	 0.0	 0.0	 0.0	 0.0	 9	     1.0500	     0.0000	 110.0	 1	     1.1500	     0.8500;
	3521	 1	 0.0	 0.0	 0.0	 0.0	 10	     1.0579	     0.0000	 110.0	 1	     1.1500	     0.8500;
	3522	 1	 0.0	 0.0	 0.0	 0.0	 10	     1.0411	     0.0000	 220.0	 1	     1.1500	     0.8500;
	3541	 1	 0.0	 0.0	 0.0	 0.0	 7	     1.0432	     0.0000	 110.0	 1	     1.1500	     0.8500;
	3561	 1	 0.0	 0.0	 0.0	 0.0	 10	     1.0576	     0.0000	 110.0	 1	     1.1500	     0.8500;
	3581	 1	 0.0	 0.0	 0.0	 0.0	 9	     0.9799	     0.0000	 110.0	 1	     1.1500	     0.8500;
	3601	 1	 0.0	 0.0	 0.0	 0.0	 3	     1.0327	     0.0000	 110.0	 1	     1.1500	     0.8500;
	3611	 1	 0.0	 0.0	 0.0	 0.0	 3	     1.0329	     0.0000	 110.0	 1	     1.1500	     0.8500;
	3621	 1	 0.0	 0.0	 0.0	 0.0	 5	     1.0467	     0.0000	 110.0	 1	     1.1500	     0.8500;
	3641	 1	 0.0	 0.0	 0.0	 0.0	 6	     1.0559	     0.0000	 110.0	 1	     1.1500	     0.8500;
	3642	 1	 0.0	 0.0	 0.0	 0.0	 6	     1.0541	     0.0000	 220.0	 1	     1.1500	     0.8500;
	3651	 1	 0.0	 0.0	 0.0	 0.0	 5	     1.0559	     0.0000	 110.0	 1	     1.1500	     0.8500;
	3751	 1	 0.0	 0.0	 0.0	 0.0	 1	     1.0718	     0.0000	 110.0	 1	     1.1500	     0.8500;
	3761	 1	 0.0	 0.0	 0.0	 0.0	 1	     1.0550	     0.0000	 110.0	 1	     1.1500	     0.8500;
	3781	 1	 0.0	 0.0	 0.0	 0.0	 1	     1.0583	     0.0000	 110.0	 1	     1.1500	     0.8500;
	3801	 1	 0.0	 0.0	 0.0	 0.0	 3	     1.0354	     0.0000	 110.0	 1	     1.1500	     0.8500;
	3821	 1	 0.0	 0.0	 0.0	 0.0	 10	     1.0396	     0.0000	 110.0	 1	     1.1500	     0.8500;
	3841	 1	 0.0	 0.0	 0.0	 0.0	 2	     1.0561	     0.0000	 110.0	 1	     1.1500	     0.8500;
	3842	 1	 0.0	 0.0	 0.0	 0.0	 2	     1.0649	     0.0000	 220.0	 1	     1.1500	     0.8500;
	3851	 1	 0.0	 0.0	 0.0	 0.0	 2	     1.0550	     0.0000	 110.0	 1	     1.1500	     0.8500;
	3852	 1	 0.0	 0.0	 0.0	 0.0	 2	     1.0695	     0.0000	 220.0	 1	     1.1500	     0.8500;
	3861	 1	 0.0	 0.0	 0.0	 0.0	 1	     1.0725	     0.0000	 110.0	 1	     1.1500	     0.8500;
	3871	 1	 0.0	 0.0	 0.0	 0.0	 1	     1.0661	     0.0000	 110.0	 1	     1.1500	     0.8500;
	3881	 1	 0.0	 0.0	 0.0	 0.0	 3	     1.0401	     0.0000	 110.0	 1	     1.1500	     0.8500;
	3901	 1	 0.0	 0.0	 0.0	 0.0	 7	     1.0420	     0.0000	 110.0	 1	     1.1500	     0.8500;
	3934	 1	 0.0	 0.0	 0.0	 0.0	 4	     1.0500	     0.0000	 380.0	 1	     1.1500	     0.8500;
	3941	 1	 0.0	 0.0	 0.0	 0.0	 4	     1.0498	     0.0000	 110.0	 1	     1.1500	     0.8500;
	3942	 1	 0.0	 0.0	 0.0	 0.0	 4	     1.0665	     0.0000	 220.0	 1	     1.1500	     0.8500;
	3944	 1	 0.0	 0.0	 0.0	 0.0	 4	     1.0500	     0.0000	 380.0	 1	     1.1500	     0.8500;
	3954	 1	 0.0	 0.0	 0.0	 0.0	 4	     1.0500	     0.0000	 380.0	 1	     1.1500	     0.8500;
	3961	 1	 0.0	 0.0	 0.0	 0.0	 3	     1.0331	     0.0000	 110.0	 1	     1.1500	     0.8500;
	3981	 1	 0.0	 0.0	 0.0	 0.0	 7	     1.0418	     0.0000	 110.0	 1	     1.1500	     0.8500;
	3991	 1	 0.0	 0.0	 0.0	 0.0	 7	     1.0418	     0.0000	 110.0	 1	     1.1500	     0.8500;
	4001	 1	 0.0	 0.0	 0.0	 0.0	 9	     1.0286	     0.0000	 110.0	 1	     1.1500	     0.8500;
	4021	 1	 0.0	 0.0	 0.0	 0.0	 3	     1.0256	     0.0000	 110.0	 1	     1.1500	     0.8500;
	4041	 1	 0.0	 0.0	 0.0	 0.0	 9	     1.0443	     0.0000	 110.0	 1	     1.1500	     0.8500;
	4061	 1	 0.0	 0.0	 0.0	 0.0	 10	     1.0469	     0.0000	 110.0	 1	     1.1500	     0.8500;
	4071	 1	 0.0	 0.0	 0.0	 0.0	 9	     0.9896	     0.0000	 110.0	 1	     1.1500	     0.8500;
	4081	 1	 0.0	 0.0	 0.0	 0.0	 8	     1.0556	     0.0000	 110.0	 1	     1.1500	     0.8500;
	4101	 1	 0.0	 0.0	 0.0	 0.0	 1	     1.0730	     0.0000	 110.0	 1	     1.1500	     0.8500;
...
];

%% generator data
%	bus	Pg	Qg	Qmax	Qmin	Vg	mBase	status	Pmax	Pmin	Pc1	Pc2	Qc1min	Qc1max	Qc2min	Qc2max	ramp_agc	ramp_10	ramp_30	ramp_q	apf
mpc.gen = [
	10271	 21.0	 0.0	 15.0	 -7.0	 1.05	 34.0	 0	 21.0	 5.0	 0.0	 0.0	 0.0	 0.0	 0.0	 0.0	 0.0	 0.0	 0.0	 0.0	 0.0; % NG
	10272	 22.0	 0.0	 15.0	 -7.0	 1.05	 34.0	 0	 22.0	 5.0	 0.0	 0.0	 0.0	 0.0	 0.0	 0.0	 0.0	 0.0	 0.0	 0.0	 0.0; % NG
	10273	 19.0	 0.0	 15.0	 -7.0	 1.05	 34.0	 0	 19.0	 5.0	 0.0	 0.0	 0.0	 0.0	 0.0	 0.0	 0.0	 0.0	 0.0	 0.0	 0.0; % NG
	10274	 24.0	 0.0	 15.0	 -7.0	 1.05	 34.0	 0	 24.0	 5.0	 0.0	 0.0	 0.0	 0.0	 0.0	 0.0	 0.0	 0.0	 0.0	 0.0	 0.0; % NG
	10275	 2.25	 0.0	 0.0	 0.0	 1.05	 8.35	 1	 7.5	 0.0	 0.0	 0.0	 0.0	 0.0	 0.0	 0.0	 0.0	 0.0	 0.0	 0.0	 0.0; % NG
	10276	 0.198	 0.0	 0.0	 0.0	 1.05	 0.85	 1	 0.66	 0.0	 0.0	 0.0	 0.0	 0.0	 0.0	 0.0	 0.0	 0.0	 0.0	 0.0	 0.0; % PEL
	10470	 300.0	 -41.968	 270.0	 -170.0	 1.04	 500.0	 1	 443.0	 222.0	 0.0	 0.0	 0.0	 0.0	 0.0	 0.0	 0.0	 0.0	 0.0	 0.0	 0.0; % NG
	10471	 270.0	 0.0	 159.0	 -75.0	 1.075	 318.8	 0	 270.0	 40.0	 0.0	 0.0	 0.0	 0.0	 0.0	 0.0	 0.0	 0.0	 0.0	 0.0	 0.0; % NG
	10472	 90.0	 0.0	 60.0	 -30.0	 1.075	 100.9	 0	 90.0	 13.0	 0.0	 0.0	 0.0	 0.0	 0.0	 0.0	 0.0	 0.0	 0.0	 0.0	 0.0; % NG
	10473	 90.0	 0.0	 60.0	 -30.0	 1.075	 100.9	 0	 90.0	 13.0	 0.0	 0.0	 0.0	 0.0	 0.0	 0.0	 0.0	 0.0	 0.0	 0.0	 0.0; % NG
	10474	 90.0	 0.0	 60.0	 -30.0	 1.075	 100.9	 0	 90.0	 13.0	 0.0	 0.0	 0.0	 0.0	 0.0	 0.0	 0.0	 0.0	 0.0	 0.0	 0.0; % NG
	10671	 1.44	 -1.94	 -1.94	 -1.94	 1.04	 4.8	 1	 4.8	 0.0	 0.0	 0.0	 0.0	 0.0	 0.0	 0.0	 0.0	 0.0	 0.0	 0.0	 0.0; % PEL
	10672	 1.5	 -2.0	 -2.0	 -2.0	 1.04	 6.0	 1	 5.0	 0.0	 0.0	 0.0	 0.0	 0.0	 0.0	 0.0	 0.0	 0.0	 0.0	 0.0	 0.0; % NG
	10673	 0.36	 -0.48	 -0.48	 -0.48	 1.05	 1.2	 1	 1.2	 0.0	 0.0	 0.0	 0.0	 0.0	 0.0	 0.0	 0.0	 0.0	 0.0	 0.0	 0.0; % PEL
	10674	 1.38	 -1.77	 -1.77	 -2.3	 1.04	 4.6	 1	 4.6	 0.0	 0.0	 0.0	 0.0	 0.0	 0.0	 0.0	 0.0	 0.0	 0.0	 0.0	 0.0; % NG
	11204	 1.0	 0.0	 0.0	 0.0	 1.0	 1.6	 0	 1.0	 0.0	 0.0	 0.0	 0.0	 0.0	 0.0	 0.0	 0.0	 0.0	 0.0	 0.0	 0.0; % PEL
	11271	 7.56	 0.0	 0.0	 0.0	 1.04	 28.0	 1	 25.2	 0.0	 0.0	 0.0	 0.0	 0.0	 0.0	 0.0	 0.0	 0.0	 0.0	 0.0	 0.0; % COW
	12371	 9.45	 -7.0	 7.0	 -7.0	 1.05	 32.0	 1	 31.5	 0.0	 0.0	 0.0	 0.0	 0.0	 0.0	 0.0	 0.0	 0.0	 0.0	 0.0	 0.0; % NG
	12372	 3.15	 0.0	 0.0	 0.0	 1.05	 10.0	 1	 10.5	 0.0	 0.0	 0.0	 0.0	 0.0	 0.0	 0.0	 0.0	 0.0	 0.0	 0.0	 0.0; % NG
	12571	 5.835	 0.0	 0.0	 0.0	 1.05	 25.05	 1	 19.45	 0.0	 0.0	 0.0	 0.0	 0.0	 0.0	 0.0	 0.0	 0.0	 0.0	 0.0	 0.0; % COW
	12572	 0.9	 0.818	 0.99	 -0.99	 1.05	 3.34	 1	 3.0	 0.0	 0.0	 0.0	 0.0	 0.0	 0.0	 0.0	 0.0	 0.0	 0.0	 0.0	 0.0; % PEL
	12573	 2.7	 2.454	 2.96	 -2.96	 1.05	 10.02	 1	 9.0	 0.0	 0.0	 0.0	 0.0	 0.0	 0.0	 0.0	 0.0	 0.0	 0.0	 0.0	 0.0; % NG
	12872	 2.52	 0.0	 0.0	 -2.76	 1.05	 9.2	 1	 8.4	 0.0	 0.0	 0.0	 0.0	 0.0	 0.0	 0.0	 0.0	 0.0	 0.0	 0.0	 0.0; % NG
	12873	 5.865	 0.0	 0.0	 0.0	 1.05	 20.7	 1	 19.55	 0.0	 0.0	 0.0	 0.0	 0.0	 0.0	 0.0	 0.0	 0.0	 0.0	 0.0	 0.0; % NG
	12874	 2.55	 0.0	 0.0	 0.0	 1.05	 8.5	 1	 8.5	 0.0	 0.0	 0.0	 0.0	 0.0	 0.0	 0.0	 0.0	 0.0	 0.0	 0.0	 0.0; % COW
	13434	 4.3	 0.0	 0.0	 0.0	 1.0	 4.5	 0	 4.3	 0.0	 0.0	 0.0	 0.0	 0.0	 0.0	 0.0	 0.0	 0.0	 0.0	 0.0	 0.0; % NG
	13471	 0.198	 0.0	 0.0	 0.0	 1.05	 0.66	 1	 0.66	 0.0	 0.0	 0.0	 0.0	 0.0	 0.0	 0.0	 0.0	 0.0	 0.0	 0.0	 0.0; % PEL
	13472	 0.765	 0.0	 0.0	 -0.84	 1.05	 2.7	 1	 2.55	 0.0	 0.0	 0.0	 0.0	 0.0	 0.0	 0.0	 0.0	 0.0	 0.0	 0.0	 0.0; % PEL
	13473	 3.0	 0.0	 0.0	 0.0	 1.05	 10.0	 1	 10.0	 0.0	 0.0	 0.0	 0.0	 0.0	 0.0	 0.0	 0.0	 0.0	 0.0	 0.0	 0.0; % NG
	13475	 2.295	 0.0	 0.0	 0.0	 1.05	 7.65	 1	 7.65	 0.0	 0.0	 0.0	 0.0	 0.0	 0.0	 0.0	 0.0	 0.0	 0.0	 0.0	 0.0; % NG
	13476	 3.57	 0.0	 0.0	 0.0	 1.05	 11.5	 1	 11.9	 0.0	 0.0	 0.0	 0.0	 0.0	 0.0	 0.0	 0.0	 0.0	 0.0	 0.0	 0.0; % NG
	13477	 0.765	 0.0	 0.0	 0.0	 1.05	 2.7	 1	 2.55	 0.0	 0.0	 0.0	 0.0	 0.0	 0.0	 0.0	 0.0	 0.0	 0.0	 0.0	 0.0; % PEL
	13479	 1.02	 0.0	 0.0	 0.0	 1.0	 3.4	 1	 3.4	 0.0	 0.0	 0.0	 0.0	 0.0	 0.0	 0.0	 0.0	 0.0	 0.0	 0.0	 0.0; % PEL
	14073	 1.935	 -2.4	 -2.4	 -2.4	 1.04	 7.611	 1	 6.45	 0.0	 0.0	 0.0	 0.0	 0.0	 0.0	 0.0	 0.0	 0.0	 0.0	 0.0	 0.0; % NG
	14471	 1.2	 0.0	 0.0	 0.0	 1.04	 4.0	 1	 4.0	 0.0	 0.0	 0.0	 0.0	 0.0	 0.0	 0.0	 0.0	 0.0	 0.0	 0.0	 0.0; % PEL
	14472	 0.085	 0.0	 0.0	 0.0	 1.0	 0.85	 1	 0.85	 0.0	 0.0	 0.0	 0.0	 0.0	 0.0	 0.0	 0.0	 0.0	 0.0	 0.0	 0.0; % NG
	14604	 4.8	 0.0	 0.0	 0.0	 1.05	 7.0	 0	 4.8	 0.0	 0.0	 0.0	 0.0	 0.0	 0.0	 0.0	 0.0	 0.0	 0.0	 0.0	 0.0; % NG
	14871	 0.51	 0.0	 0.0	 0.0	 1.05	 4.6	 1	 1.7	 0.0	 0.0	 0.0	 0.0	 0.0	 0.0	 0.0	 0.0	 0.0	 0.0	 0.0	 0.0; % PEL
	15573	 6.0	 0.0	 0.0	 0.0	 1.04	 23.0	 1	 20.0	 0.0	 0.0	 0.0	 0.0	 0.0	 0.0	 0.0	 0.0	 0.0	 0.0	 0.0	 0.0; % NG
	15771	 0.594	 -0.3	 -0.3	 -0.3	 1.04	 1.98	 1	 1.98	 0.0	 0.0	 0.0	 0.0	 0.0	 0.0	 0.0	 0.0	 0.0	 0.0	 0.0	 0.0; % PEL
	15772	 0.9	 -1.92	 -1.92	 -1.92	 1.04	 3.0	 1	 3.0	 0.0	 0.0	 0.0	 0.0	 0.0	 0.0	 0.0	 0.0	 0.0	 0.0	 0.0	 0.0; % NG
	16371	 1.02	 0.0	 0.0	 0.0	 1.0	 3.4	 1	 3.4	 0.0	 0.0	 0.0	 0.0	 0.0	 0.0	 0.0	 0.0	 0.0	 0.0	 0.0	 0.0; % NG
	16372	 1.02	 0.0	 0.0	 0.0	 1.0	 3.4	 1	 3.4	 0.0	 0.0	 0.0	 0.0	 0.0	 0.0	 0.0	 0.0	 0.0	 0.0	 0.0	 0.0; % PEL
	16373	 2.04	 0.0	 0.0	 0.0	 1.0	 6.8	 1	 6.8	 0.0	 0.0	 0.0	 0.0	 0.0	 0.0	 0.0	 0.0	 0.0	 0.0	 0.0	 0.0; % NG
	16374	 2.295	 0.0	 0.0	 0.0	 1.0	 7.65	 1	 7.65	 0.0	 0.0	 0.0	 0.0	 0.0	 0.0	 0.0	 0.0	 0.0	 0.0	 0.0	 0.0; % NG
	16375	 1.188	 0.0	 0.0	 0.0	 1.0	 4.25	 1	 3.96	 0.0	 0.0	 0.0	 0.0	 0.0	 0.0	 0.0	 0.0	 0.0	 0.0	 0.0	 0.0; % PEL
	16376	 1.485	 0.0	 0.0	 0.0	 1.0	 5.1	 1	 4.95	 0.0	 0.0	 0.0	 0.0	 0.0	 0.0	 0.0	 0.0	 0.0	 0.0	 0.0	 0.0; % PEL
	16377	 2.7	 0.0	 0.0	 0.0	 1.0	 9.2	 1	 9.0	 0.0	 0.0	 0.0	 0.0	 0.0	 0.0	 0.0	 0.0	 0.0	 0.0	 0.0	 0.0; % NG
	16379	 0.087	 0.0	 0.0	 0.0	 1.0	 0.323	 1	 0.29	 0.0	 0.0	 0.0	 0.0	 0.0	 0.0	 0.0	 0.0	 0.0	 0.0	 0.0	 0.0; % NG
	16571	 11.34	 0.0	 0.0	 0.0	 1.05	 40.0	 1	 37.8	 0.0	 0.0	 0.0	 0.0	 0.0	 0.0	 0.0	 0.0	 0.0	 0.0	 0.0	 0.0; % PEL
	16670	 1.35	 -1.075	 0.0	 -3.07	 1.0	 4.5	 1	 4.5	 0.0	 0.0	 0.0	 0.0	 0.0	 0.0	 0.0	 0.0	 0.0	 0.0	 0.0	 0.0; % NG
	16671	 1.02	 0.0	 0.0	 0.0	 1.04	 3.4	 1	 3.4	 0.0	 0.0	 0.0	 0.0	 0.0	 0.0	 0.0	 0.0	 0.0	 0.0	 0.0	 0.0; % NG
	16672	 0.477	 -0.56	 -0.56	 -0.56	 1.04	 1.7	 1	 1.59	 0.0	 0.0	 0.0	 0.0	 0.0	 0.0	 0.0	 0.0	 0.0	 0.0	 0.0	 0.0; % PEL
	16674	 5.61	 0.0	 0.0	 0.0	 1.04	 18.7	 1	 18.7	 0.0	 0.0	 0.0	 0.0	 0.0	 0.0	 0.0	 0.0	 0.0	 0.0	 0.0	 0.0; % NG
	16675	 2.4	 -2.65	 -2.65	 -2.65	 1.04	 8.0	 1	 8.0	 0.0	 0.0	 0.0	 0.0	 0.0	 0.0	 0.0	 0.0	 0.0	 0.0	 0.0	 0.0; % COW
	16873	 8.0	 0.0	 7.0	 -1.0	 1.05	 11.5	 0	 8.0	 2.0	 0.0	 0.0	 0.0	 0.0	 0.0	 0.0	 0.0	 0.0	 0.0	 0.0	 0.0; % NG
	17073	 22.5	 0.0	 15.0	 -5.0	 1.05	 30.0	 0	 22.5	 5.0	 0.0	 0.0	 0.0	 0.0	 0.0	 0.0	 0.0	 0.0	 0.0	 0.0	 0.0; % PEL
	17074	 22.5	 0.0	 23.0	 -25.0	 1.05	 35.5	 0	 22.5	 5.0	 0.0	 0.0	 0.0	 0.0	 0.0	 0.0	 0.0	 0.0	 0.0	 0.0	 0.0; % COW
	17075	 0.594	 -0.8	 -0.8	 -0.8	 1.0	 1.98	 1	 1.98	 0.0	 0.0	 0.0	 0.0	 0.0	 0.0	 0.0	 0.0	 0.0	 0.0	 0.0	 0.0; % PEL
	17077	 0.006	 0.0	 0.0	 0.0	 1.0	 1.2	 1	 0.02	 0.0	 0.0	 0.0	 0.0	 0.0	 0.0	 0.0	 0.0	 0.0	 0.0	 0.0	 0.0; % NG
	17671	 10.0	 0.0	 7.0	 -3.0	 1.05	 12.5	 0	 10.0	 3.0	 0.0	 0.0	 0.0	 0.0	 0.0	 0.0	 0.0	 0.0	 0.0	 0.0	 0.0; % NG
	17672	 10.0	 0.0	 7.0	 -3.0	 1.05	 12.5	 0	 10.0	 3.0	 0.0	 0.0	 0.0	 0.0	 0.0	 0.0	 0.0	 0.0	 0.0	 0.0	 0.0; % PEL
	18471	 1.497	 0.0	 0.0	 0.0	 1.04	 5.2	 1	 4.99	 0.0	 0.0	 0.0	 0.0	 0.0	 0.0	 0.0	 0.0	 0.0	 0.0	 0.0	 0.0; % PEL
	19081	 0.765	 0.0	 0.0	 0.0	 1.04	 2.55	 1	 2.55	 0.0	 0.0	 0.0	 0.0	 0.0	 0.0	 0.0	 0.0	 0.0	 0.0	 0.0	 0.0; % PEL
	19082	 0.51	 0.0	 0.0	 0.0	 1.05	 1.7	 1	 1.7	 0.0	 0.0	 0.0	 0.0	 0.0	 0.0	 0.0	 0.0	 0.0	 0.0	 0.0	 0.0; % PEL
	19083	 1.497	 0.0	 0.0	 0.0	 1.04	 6.9	 1	 4.99	 0.0	 0.0	 0.0	 0.0	 0.0	 0.0	 0.0	 0.0	 0.0	 0.0	 0.0	 0.0; % NG
	19084	 1.35	 -1.5	 -1.5	 -1.5	 1.04	 4.6	 1	 4.5	 0.0	 0.0	 0.0	 0.0	 0.0	 0.0	 0.0	 0.0	 0.0	 0.0	 0.0	 0.0; % NG
	19085	 6.3	 -7.0	 -7.0	 -7.0	 1.04	 23.824	 1	 21.0	 0.0	 0.0	 0.0	 0.0	 0.0	 0.0	 0.0	 0.0	 0.0	 0.0	 0.0	 0.0; % PEL
	19317	 0.0	 -0.505	 6.0	 -6.0	 1.05	 6.0	 1	 0.0	 0.0	 0.0	 0.0	 0.0	 0.0	 0.0	 0.0	 0.0	 0.0	 0.0	 0.0	 0.0; % SYNC
	19371	 7.125	 0.0	 0.0	 0.0	 1.05	 29.78	 1	 23.75	 0.0	 0.0	 0.0	 0.0	 0.0	 0.0	 0.0	 0.0	 0.0	 0.0	 0.0	 0.0; % PEL
	19372	 3.315	 0.0	 0.0	 0.0	 1.05	 11.05	 1	 11.05	 0.0	 0.0	 0.0	 0.0	 0.0	 0.0	 0.0	 0.0	 0.0	 0.0	 0.0	 0.0; % NG
	19471	 120.0	 26.682	 94.0	 -50.0	 1.075	 153.0	 1	 133.5	 60.0	 0.0	 0.0	 0.0	 0.0	 0.0	 0.0	 0.0	 0.0	 0.0	 0.0	 0.0; % NG
	19472	 58.274	 0.0	 38.0	 -23.0	 1.075	 66.625	 0	 58.274	 19.7	 0.0	 0.0	 0.0	 0.0	 0.0	 0.0	 0.0	 0.0	 0.0	 0.0	 0.0; % NG
	19473	 58.274	 0.0	 40.0	 -23.0	 1.075	 66.625	 0	 58.274	 19.7	 0.0	 0.0	 0.0	 0.0	 0.0	 0.0	 0.0	 0.0	 0.0	 0.0	 0.0; % PEL
	19601	 0.585	 0.0	 0.0	 0.0	 1.0	 6.5	 1	 5.85	 0.0	 0.0	 0.0	 0.0	 0.0	 0.0	 0.0	 0.0	 0.0	 0.0	 0.0	 0.0; % PEL
	19771	 12.75	 0.0	 0.0	 0.0	 1.05	 46.875	 1	 42.5	 0.0	 0.0	 0.0	 0.0	 0.0	 0.0	 0.0	 0.0	 0.0	 0.0	 0.0	 0.0; % NG
	19772	 2.55	 -0.579	 2.79	 -2.79	 1.05	 8.5	 1	 8.5	 0.0	 0.0	 0.0	 0.0	 0.0	 0.0	 0.0	 0.0	 0.0	 0.0	 0.0	 0.0; % NG
	19773	 9.0	 -2.049	 9.86	 -9.86	 1.05	 38.714	 1	 30.0	 0.0	 0.0	 0.0	 0.0	 0.0	 0.0	 0.0	 0.0	 0.0	 0.0	 0.0	 0.0; % PEL
	19971	 6.0	 -6.7	 6.7	 -6.7	 1.05	 20.7	 1	 20.0	 0.0	 0.0	 0.0	 0.0	 0.0	 0.0	 0.0	 0.0	 0.0	 0.0	 0.0	 0.0; % NG
	19972	 0.69	 0.0	 0.0	 0.0	 1.05	 2.3	 1	 2.3	 0.0	 0.0	 0.0	 0.0	 0.0	 0.0	 0.0	 0.0	 0.0	 0.0	 0.0	 0.0; % NG
	19973	 0.69	 0.0	 0.0	 0.0	 1.05	 2.3	 1	 2.3	 0.0	 0.0	 0.0	 0.0	 0.0	 0.0	 0.0	 0.0	 0.0	 0.0	 0.0	 0.0; % PEL
	19974	 4.83	 -4.0	 4.0	 -4.0	 1.05	 16.1	 1	 16.1	 0.0	 0.0	 0.0	 0.0	 0.0	 0.0	 0.0	 0.0	 0.0	 0.0	 0.0	 0.0; % NG
	21071	 0.15	 0.0	 0.0	 0.0	 1.05	 0.85	 1	 0.5	 0.0	 0.0	 0.0	 0.0	 0.0	 0.0	 0.0	 0.0	 0.0	 0.0	 0.0	 0.0; % PEL
	21371	 8.55	 -9.5	 9.5	 -9.5	 1.05	 31.73	 1	 28.5	 0.0	 0.0	 0.0	 0.0	 0.0	 0.0	 0.0	 0.0	 0.0	 0.0	 0.0	 0.0; % NG
	21871	 0.51	 0.0	 0.0	 0.0	 1.01	 1.7	 1	 1.7	 0.0	 0.0	 0.0	 0.0	 0.0	 0.0	 0.0	 0.0	 0.0	 0.0	 0.0	 0.0; % PEL
	21872	 0.75	 -0.99	 -0.99	 -1.28	 1.01	 2.7	 1	 2.5	 0.0	 0.0	 0.0	 0.0	 0.0	 0.0	 0.0	 0.0	 0.0	 0.0	 0.0	 0.0; % PEL
	22273	 1.35	 -1.02	 0.0	 -1.48	 1.0	 4.0	 1	 4.5	 0.0	 0.0	 0.0	 0.0	 0.0	 0.0	 0.0	 0.0	 0.0	 0.0	 0.0	 0.0; % NG
	22274	 1.782	 -2.4	 -2.4	 -2.4	 1.0	 5.94	 1	 5.94	 0.0	 0.0	 0.0	 0.0	 0.0	 0.0	 0.0	 0.0	 0.0	 0.0	 0.0	 0.0; % PEL
	22275	 1.275	 0.0	 0.0	 0.0	 1.0	 4.25	 1	 4.25	 0.0	 0.0	 0.0	 0.0	 0.0	 0.0	 0.0	 0.0	 0.0	 0.0	 0.0	 0.0; % PEL
	22276	 1.785	 0.0	 0.0	 0.0	 1.0	 6.68	 1	 5.95	 0.0	 0.0	 0.0	 0.0	 0.0	 0.0	 0.0	 0.0	 0.0	 0.0	 0.0	 0.0; % PEL
	22278	 1.386	 -1.0	 -1.0	 -1.0	 1.0	 4.62	 1	 4.62	 0.0	 0.0	 0.0	 0.0	 0.0	 0.0	 0.0	 0.0	 0.0	 0.0	 0.0	 0.0; % NG
	22292	 6.0	 0.0	 0.0	 0.0	 1.0	 6.0	 0	 6.0	 0.0	 0.0	 0.0	 0.0	 0.0	 0.0	 0.0	 0.0	 0.0	 0.0	 0.0	 0.0; % PEL
	22371	 17.85	 0.0	 0.0	 0.0	 1.05	 59.5	 1	 59.5	 0.0	 0.0	 0.0	 0.0	 0.0	 0.0	 0.0	 0.0	 0.0	 0.0	 0.0	 0.0; % NG
	22471	 0.765	 0.0	 0.0	 0.0	 1.04	 2.55	 1	 2.55	 0.0	 0.0	 0.0	 0.0	 0.0	 0.0	 0.0	 0.0	 0.0	 0.0	 0.0	 0.0; % PEL
	22472	 1.275	 0.0	 0.0	 0.0	 1.04	 4.25	 1	 4.25	 0.0	 0.0	 0.0	 0.0	 0.0	 0.0	 0.0	 0.0	 0.0	 0.0	 0.0	 0.0; % PEL
	22671	 52.1	 0.0	 32.6	 -22.7	 1.05	 62.0	 0	 52.1	 1.2	 0.0	 0.0	 0.0	 0.0	 0.0	 0.0	 0.0	 0.0	 0.0	 0.0	 0.0; % NG
	22672	 52.1	 0.0	 32.6	 -22.7	 1.05	 62.0	 0	 52.1	 1.2	 0.0	 0.0	 0.0	 0.0	 0.0	 0.0	 0.0	 0.0	 0.0	 0.0	 0.0; % PEL
	22871	 0.72	 -0.84	 -0.84	 -1.09	 1.01	 2.4	 1	 2.4	 0.0	 0.0	 0.0	 0.0	 0.0	 0.0	 0.0	 0.0	 0.0	 0.0	 0.0	 0.0; % PEL
	26771	 7.8	 4.483	 10.0	 -10.0	 1.05	 26.0	 1	 26.0	 0.0	 0.0	 0.0	 0.0	 0.0	 0.0	 0.0	 0.0	 0.0	 0.0	 0.0	 0.0; % NG
	26772	 0.6	 0.0	 0.0	 0.0	 1.075	 6.0	 1	 6.0	 6.0	 0.0	 0.0	 0.0	 0.0	 0.0	 0.0	 0.0	 0.0	 0.0	 0.0	 0.0; % PEL
	26773	 6.6	 4.483	 10.0	 -10.0	 1.05	 22.0	 1	 22.0	 0.0	 0.0	 0.0	 0.0	 0.0	 0.0	 0.0	 0.0	 0.0	 0.0	 0.0	 0.0; % PEL
	26774	 0.6	 0.0	 0.0	 0.0	 1.075	 6.0	 1	 6.0	 6.0	 0.0	 0.0	 0.0	 0.0	 0.0	 0.0	 0.0	 0.0	 0.0	 0.0	 0.0; % NG
	27071	 0.24	 0.0	 0.0	 0.0	 1.0	 0.8	 1	 0.8	 0.0	 0.0	 0.0	 0.0	 0.0	 0.0	 0.0	 0.0	 0.0	 0.0	 0.0	 0.0; % PEL
	27204	 4.0	 0.0	 1.0	 -1.0	 1.04	 5.0	 0	 4.0	 0.0	 0.0	 0.0	 0.0	 0.0	 0.0	 0.0	 0.0	 0.0	 0.0	 0.0	 0.0; % NG
	27361	 0.0	 0.0	 12.3	 -12.3	 1.05	 12.3	 0	 0.0	 0.0	 0.0	 0.0	 0.0	 0.0	 0.0	 0.0	 0.0	 0.0	 0.0	 0.0	 0.0; % SYNC
	27371	 3.84	 0.0	 0.0	 0.0	 1.05	 14.45	 1	 12.8	 0.0	 0.0	 0.0	 0.0	 0.0	 0.0	 0.0	 0.0	 0.0	 0.0	 0.0	 0.0; % PEL
	27372	 5.1	 0.0	 0.0	 0.0	 1.05	 18.75	 1	 17.0	 0.0	 0.0	 0.0	 0.0	 0.0	 0.0	 0.0	 0.0	 0.0	 0.0	 0.0	 0.0; % NG
	27471	 57.0	 0.0	 42.0	 -3.0	 1.075	 75.0	 0	 57.0	 25.0	 0.0	 0.0	 0.0	 0.0	 0.0	 0.0	 0.0	 0.0	 0.0	 0.0	 0.0; % PEL
	27472	 51.8	 0.0	 40.0	 -3.0	 1.075	 75.0	 0	 51.8	 25.0	 0.0	 0.0	 0.0	 0.0	 0.0	 0.0	 0.0	 0.0	 0.0	 0.0	 0.0; % NG
	27473	 121.0	 0.0	 82.0	 -48.0	 1.075	 150.0	 0	 121.0	 30.0	 0.0	 0.0	 0.0	 0.0	 0.0	 0.0	 0.0	 0.0	 0.0	 0.0	 0.0; % COW
	27771	 12.367	 -2.69	 13.0	 -13.61	 1.05	 41.4	 1	 41.225	 0.0	 0.0	 0.0	 0.0	 0.0	 0.0	 0.0	 0.0	 0.0	 0.0	 0.0	 0.0; % NG
	27772	 3.0	 -2.0	 -2.0	 -2.0	 1.0	 11.912	 1	 10.0	 0.0	 0.0	 0.0	 0.0	 0.0	 0.0	 0.0	 0.0	 0.0	 0.0	 0.0	 0.0; % NG
	27773	 1.5	 -1.0	 -1.0	 -1.0	 1.0	 4.6	 1	 5.0	 0.0	 0.0	 0.0	 0.0	 0.0	 0.0	 0.0	 0.0	 0.0	 0.0	 0.0	 0.0; % COW
	27774	 5.4	 -3.0	 -3.0	 -3.0	 1.05	 18.4	 1	 18.0	 0.0	 0.0	 0.0	 0.0	 0.0	 0.0	 0.0	 0.0	 0.0	 0.0	 0.0	 0.0; % NG
	27871	 0.99	 -0.7	 -0.7	 -0.7	 1.04	 3.3	 1	 3.3	 0.0	 0.0	 0.0	 0.0	 0.0	 0.0	 0.0	 0.0	 0.0	 0.0	 0.0	 0.0; % NG
	28071	 4.5	 -6.0	 -6.0	 -6.0	 1.05	 15.0	 1	 15.0	 0.0	 0.0	 0.0	 0.0	 0.0	 0.0	 0.0	 0.0	 0.0	 0.0	 0.0	 0.0; % NG
	28271	 0.9	 -1.2	 -1.2	 -1.2	 1.04	 3.34	 1	 3.0	 0.0	 0.0	 0.0	 0.0	 0.0	 0.0	 0.0	 0.0	 0.0	 0.0	 0.0	 0.0; % NG
	28571	 300.0	 -47.357	 282.1	 -190.0	 1.04	 535.5	 1	 450.5	 110.1	 0.0	 0.0	 0.0	 0.0	 0.0	 0.0	 0.0	 0.0	 0.0	 0.0	 0.0; % COW
	28872	 3.15	 0.0	 0.0	 0.0	 1.0	 13.8	 1	 10.5	 0.0	 0.0	 0.0	 0.0	 0.0	 0.0	 0.0	 0.0	 0.0	 0.0	 0.0	 0.0; % NG
	28873	 4.95	 -5.42	 5.42	 -5.42	 1.0	 18.4	 1	 16.5	 0.0	 0.0	 0.0	 0.0	 0.0	 0.0	 0.0	 0.0	 0.0	 0.0	 0.0	 0.0; % PEL
	28874	 7.8	 0.0	 0.0	 0.0	 1.0	 27.6	 1	 26.0	 0.0	 0.0	 0.0	 0.0	 0.0	 0.0	 0.0	 0.0	 0.0	 0.0	 0.0	 0.0; % NG
	29671	 100.0	 -1.485	 107.0	 -53.0	 1.075	 150.0	 1	 123.0	 40.0	 0.0	 0.0	 0.0	 0.0	 0.0	 0.0	 0.0	 0.0	 0.0	 0.0	 0.0; % COW
	29672	 200.0	 -2.855	 181.0	 -87.0	 1.075	 288.0	 1	 236.2	 138.0	 0.0	 0.0	 0.0	 0.0	 0.0	 0.0	 0.0	 0.0	 0.0	 0.0	 0.0; % NG
	29673	 300.0	 83.671	 255.0	 -170.0	 1.075	 473.0	 1	 400.0	 194.0	 0.0	 0.0	 0.0	 0.0	 0.0	 0.0	 0.0	 0.0	 0.0	 0.0	 0.0; % COW
	30671	 15.0	 0.0	 13.0	 -4.0	 1.05	 21.4	 0	 15.0	 4.0	 0.0	 0.0	 0.0	 0.0	 0.0	 0.0	 0.0	 0.0	 0.0	 0.0	 0.0; % NG
	30671	 4.0	 0.0	 3.0	 -1.0	 1.05	 5.7	 0	 4.0	 1.0	 0.0	 0.0	 0.0	 0.0	 0.0	 0.0	 0.0	 0.0	 0.0	 0.0	 0.0; % NG
	31071	 0.765	 0.0	 0.0	 0.0	 1.01	 2.55	 1	 2.55	 0.0	 0.0	 0.0	 0.0	 0.0	 0.0	 0.0	 0.0	 0.0	 0.0	 0.0	 0.0; % PEL
	31074	 0.765	 0.0	 0.0	 0.0	 1.04	 2.55	 1	 2.55	 0.0	 0.0	 0.0	 0.0	 0.0	 0.0	 0.0	 0.0	 0.0	 0.0	 0.0	 0.0; % PEL
	31271	 300.0	 257.673	 295.0	 -100.0	 1.075	 500.0	 1	 409.9	 163.0	 0.0	 0.0	 0.0	 0.0	 0.0	 0.0	 0.0	 0.0	 0.0	 0.0	 0.0; % COW
	32404	 4.26	 0.0	 1.0	 -1.0	 1.04	 4.8	 0	 4.26	 0.0	 0.0	 0.0	 0.0	 0.0	 0.0	 0.0	 0.0	 0.0	 0.0	 0.0	 0.0; % NG
	32576	 3.36	 -4.211	 0.0	 -5.03	 1.0	 11.2	 1	 11.2	 0.0	 0.0	 0.0	 0.0	 0.0	 0.0	 0.0	 0.0	 0.0	 0.0	 0.0	 0.0; % COW
	32577	 1.08	 -1.327	 0.0	 -5.03	 1.0	 3.6	 1	 3.6	 0.0	 0.0	 0.0	 0.0	 0.0	 0.0	 0.0	 0.0	 0.0	 0.0	 0.0	 0.0; % PEL
	32578	 1.25	 0.0	 0.0	 0.0	 1.0	 1.25	 0	 1.25	 0.0	 0.0	 0.0	 0.0	 0.0	 0.0	 0.0	 0.0	 0.0	 0.0	 0.0	 0.0; % PEL
	32604	 7.5	 0.0	 1.0	 -1.0	 1.05	 8.5	 0	 7.5	 2.0	 0.0	 0.0	 0.0	 0.0	 0.0	 0.0	 0.0	 0.0	 0.0	 0.0	 0.0; % COW
	32604	 0.18	 0.0	 0.0	 0.0	 1.05	 0.2	 0	 0.18	 0.0	 0.0	 0.0	 0.0	 0.0	 0.0	 0.0	 0.0	 0.0	 0.0	 0.0	 0.0; % NG
	33071	 1.35	 -1.115	 0.0	 -1.48	 1.0	 4.0	 1	 4.5	 0.0	 0.0	 0.0	 0.0	 0.0	 0.0	 0.0	 0.0	 0.0	 0.0	 0.0	 0.0; % PEL
	33072	 2.805	 0.0	 0.0	 0.0	 1.0	 9.35	 1	 9.35	 0.0	 0.0	 0.0	 0.0	 0.0	 0.0	 0.0	 0.0	 0.0	 0.0	 0.0	 0.0; % NG
	35071	 1.38	 -1.64	 -1.64	 -2.13	 1.01	 4.6	 1	 4.6	 0.0	 0.0	 0.0	 0.0	 0.0	 0.0	 0.0	 0.0	 0.0	 0.0	 0.0	 0.0; % NG
	35074	 80.0	 3.189	 60.0	 -39.0	 1.05	 121.1	 1	 103.3	 70.0	 0.0	 0.0	 0.0	 0.0	 0.0	 0.0	 0.0	 0.0	 0.0	 0.0	 0.0; % PEL
	35871	 0.765	 0.0	 0.0	 0.0	 1.04	 2.55	 1	 2.55	 0.0	 0.0	 0.0	 0.0	 0.0	 0.0	 0.0	 0.0	 0.0	 0.0	 0.0	 0.0; % PEL
	35872	 0.735	 0.0	 0.0	 0.0	 1.04	 2.55	 1	 2.45	 0.0	 0.0	 0.0	 0.0	 0.0	 0.0	 0.0	 0.0	 0.0	 0.0	 0.0	 0.0; % PEL
	35873	 0.96	 0.0	 0.0	 0.0	 1.04	 3.2	 1	 3.2	 0.0	 0.0	 0.0	 0.0	 0.0	 0.0	 0.0	 0.0	 0.0	 0.0	 0.0	 0.0; % PEL
	35875	 4.5	 -6.0	 -6.0	 -6.0	 1.04	 17.7	 1	 15.0	 0.0	 0.0	 0.0	 0.0	 0.0	 0.0	 0.0	 0.0	 0.0	 0.0	 0.0	 0.0; % PEL
	35876	 3.564	 -4.8	 -4.8	 -4.8	 1.04	 11.88	 1	 11.88	 0.0	 0.0	 0.0	 0.0	 0.0	 0.0	 0.0	 0.0	 0.0	 0.0	 0.0	 0.0; % NG
	35877	 1.497	 0.0	 0.0	 0.0	 1.04	 5.4	 1	 4.99	 0.0	 0.0	 0.0	 0.0	 0.0	 0.0	 0.0	 0.0	 0.0	 0.0	 0.0	 0.0; % NG
	36271	 10.8	 12.0	 12.0	 -12.0	 1.05	 36.0	 1	 36.0	 0.0	 0.0	 0.0	 0.0	 0.0	 0.0	 0.0	 0.0	 0.0	 0.0	 0.0	 0.0; % NG
	36272	 1.9	 7.5	 7.5	 -75.0	 1.05	 20.0	 1	 19.0	 0.0	 0.0	 0.0	 0.0	 0.0	 0.0	 0.0	 0.0	 0.0	 0.0	 0.0	 0.0; % PEL
	36471	 4.335	 0.0	 0.0	 0.0	 1.05	 15.0	 1	 14.45	 0.0	 0.0	 0.0	 0.0	 0.0	 0.0	 0.0	 0.0	 0.0	 0.0	 0.0	 0.0; % COW
	36472	 1.2	 -1.31	 -1.31	 -1.7	 1.04	 4.6	 1	 4.0	 0.0	 0.0	 0.0	 0.0	 0.0	 0.0	 0.0	 0.0	 0.0	 0.0	 0.0	 0.0; % NG
	36473	 1.38	 0.0	 0.0	 0.0	 1.0	 4.6	 1	 4.6	 0.0	 0.0	 0.0	 0.0	 0.0	 0.0	 0.0	 0.0	 0.0	 0.0	 0.0	 0.0; % NG
	36474	 1.08	 -1.18	 -1.18	 -1.53	 1.04	 4.0	 1	 3.6	 0.0	 0.0	 0.0	 0.0	 0.0	 0.0	 0.0	 0.0	 0.0	 0.0	 0.0	 0.0; % PEL
	36475	 1.2	 -1.2	 -1.2	 -1.2	 1.04	 4.6	 1	 4.0	 0.0	 0.0	 0.0	 0.0	 0.0	 0.0	 0.0	 0.0	 0.0	 0.0	 0.0	 0.0; % NG
	36476	 4.44	 4.0	 4.0	 -4.0	 1.04	 17.868	 1	 14.8	 0.0	 0.0	 0.0	 0.0	 0.0	 0.0	 0.0	 0.0	 0.0	 0.0	 0.0	 0.0; % NG
	38071	 0.48	 -0.56	 -0.56	 -0.56	 1.01	 1.6	 1	 1.6	 0.0	 0.0	 0.0	 0.0	 0.0	 0.0	 0.0	 0.0	 0.0	 0.0	 0.0	 0.0; % PEL
	38244	 1.0	 0.0	 0.0	 0.0	 1.0	 6.5	 0	 1.0	 0.0	 0.0	 0.0	 0.0	 0.0	 0.0	 0.0	 0.0	 0.0	 0.0	 0.0	 0.0; % PEL
	38271	 3.15	 0.0	 0.0	 0.0	 1.04	 11.69	 1	 10.5	 0.0	 0.0	 0.0	 0.0	 0.0	 0.0	 0.0	 0.0	 0.0	 0.0	 0.0	 0.0; % NG
	38272	 1.35	 0.0	 0.0	 0.0	 1.04	 5.01	 1	 4.5	 0.0	 0.0	 0.0	 0.0	 0.0	 0.0	 0.0	 0.0	 0.0	 0.0	 0.0	 0.0; % NG
	38273	 2.25	 0.0	 0.0	 0.0	 1.05	 8.35	 1	 7.5	 0.0	 0.0	 0.0	 0.0	 0.0	 0.0	 0.0	 0.0	 0.0	 0.0	 0.0	 0.0; % NG
	38870	 7.59	 0.0	 0.0	 0.0	 1.04	 25.3	 1	 25.3	 0.0	 0.0	 0.0	 0.0	 0.0	 0.0	 0.0	 0.0	 0.0	 0.0	 0.0	 0.0; % PEL
	38871	 2.625	 -2.216	 0.0	 -2.88	 1.0	 10.0	 1	 8.75	 0.0	 0.0	 0.0	 0.0	 0.0	 0.0	 0.0	 0.0	 0.0	 0.0	 0.0	 0.0; % NG
	39471	 250.0	 45.799	 176.0	 -112.0	 1.05	 359.0	 1	 302.0	 99.0	 0.0	 0.0	 0.0	 0.0	 0.0	 0.0	 0.0	 0.0	 0.0	 0.0	 0.0; % COW
	39472	 280.0	 45.799	 176.0	 -112.0	 1.05	 359.0	 1	 303.0	 99.0	 0.0	 0.0	 0.0	 0.0	 0.0	 0.0	 0.0	 0.0	 0.0	 0.0	 0.0; % COW
	39473	 250.0	 45.799	 176.0	 -112.0	 1.05	 359.0	 1	 302.0	 99.0	 0.0	 0.0	 0.0	 0.0	 0.0	 0.0	 0.0	 0.0	 0.0	 0.0	 0.0; % NG
	39675	 90.0	 0.0	 60.0	 -19.0	 1.05	 100.9	 0	 90.0	 60.0	 0.0	 0.0	 0.0	 0.0	 0.0	 0.0	 0.0	 0.0	 0.0	 0.0	 0.0; % NG
	40471	 1.8	 0.0	 0.0	 0.0	 1.05	 6.9	 1	 6.0	 0.0	 0.0	 0.0	 0.0	 0.0	 0.0	 0.0	 0.0	 0.0	 0.0	 0.0	 0.0; % PEL
	40771	 15.87	 0.0	 0.0	 0.0	 1.05	 52.9	 1	 52.9	 0.0	 0.0	 0.0	 0.0	 0.0	 0.0	 0.0	 0.0	 0.0	 0.0	 0.0	 0.0; % NG
	40772	 5.418	 0.0	 0.0	 0.0	 1.05	 19.5	 1	 18.06	 0.0	 0.0	 0.0	 0.0	 0.0	 0.0	 0.0	 0.0	 0.0	 0.0	 0.0	 0.0; % NG
	40773	 4.2	 0.0	 0.0	 0.0	 1.05	 16.1	 1	 14.0	 0.0	 0.0	 0.0	 0.0	 0.0	 0.0	 0.0	 0.0	 0.0	 0.0	 0.0	 0.0; % NG
	42404	 15.0	 0.0	 5.0	 0.0	 1.0	 20.0	 0	 15.0	 6.0	 0.0	 0.0	 0.0	 0.0	 0.0	 0.0	 0.0	 0.0	 0.0	 0.0	 0.0; % NG
	42404	 15.0	 0.0	 5.0	 0.0	 1.0	 20.0	 0	 15.0	 6.0	 0.0	 0.0	 0.0	 0.0	 0.0	 0.0	 0.0	 0.0	 0.0	 0.0	 0.0; % COW
	42404	 15.0	 0.0	 5.0	 0.0	 1.0	 20.0	 0	 15.0	 6.0	 0.0	 0.0	 0.0	 0.0	 0.0	 0.0	 0.0	 0.0	 0.0	 0.0	 0.0; % NG
	42474	 118.0	 0.0	 55.0	 -20.0	 1.075	 132.1	 0	 118.0	 40.0	 0.0	 0.0	 0.0	 0.0	 0.0	 0.0	 0.0	 0.0	 0.0	 0.0	 0.0; % COW
	42475	 109.5	 0.0	 55.0	 -20.0	 1.075	 132.1	 0	 109.5	 20.0	 0.0	 0.0	 0.0	 0.0	 0.0	 0.0	 0.0	 0.0	 0.0	 0.0	 0.0; % COW
	42672	 0.732	 -1.01	 -0.83	 -1.07	 1.01	 2.55	 1	 2.44	 0.0	 0.0	 0.0	 0.0	 0.0	 0.0	 0.0	 0.0	 0.0	 0.0	 0.0	 0.0; % PEL
	42673	 1.17	 -1.3	 -1.3	 -1.3	 1.01	 4.6	 1	 3.9	 0.0	 0.0	 0.0	 0.0	 0.0	 0.0	 0.0	 0.0	 0.0	 0.0	 0.0	 0.0; % NG
	42674	 0.765	 0.0	 0.0	 0.0	 1.01	 2.55	 1	 2.55	 0.0	 0.0	 0.0	 0.0	 0.0	 0.0	 0.0	 0.0	 0.0	 0.0	 0.0	 0.0; % PEL
	43671	 2.07	 0.0	 0.0	 0.0	 1.0	 6.9	 1	 6.9	 0.0	 0.0	 0.0	 0.0	 0.0	 0.0	 0.0	 0.0	 0.0	 0.0	 0.0	 0.0; % PEL
	43672	 0.69	 0.0	 0.0	 0.0	 1.0	 2.3	 1	 2.3	 0.0	 0.0	 0.0	 0.0	 0.0	 0.0	 0.0	 0.0	 0.0	 0.0	 0.0	 0.0; % PEL
	43774	 10.245	 8.565	 10.0	 -10.0	 1.05	 36.8	 1	 34.15	 0.0	 0.0	 0.0	 0.0	 0.0	 0.0	 0.0	 0.0	 0.0	 0.0	 0.0	 0.0; % PEL
	44471	 15.0	 0.0	 9.0	 -10.0	 1.05	 18.8	 0	 15.0	 5.0	 0.0	 0.0	 0.0	 0.0	 0.0	 0.0	 0.0	 0.0	 0.0	 0.0	 0.0; % NG
	44471	 15.0	 0.0	 9.0	 -10.0	 1.05	 18.8	 0	 15.0	 5.0	 0.0	 0.0	 0.0	 0.0	 0.0	 0.0	 0.0	 0.0	 0.0	 0.0	 0.0; % NG
	44471	 4.0	 0.0	 3.0	 -1.0	 1.05	 5.0	 0	 4.0	 1.0	 0.0	 0.0	 0.0	 0.0	 0.0	 0.0	 0.0	 0.0	 0.0	 0.0	 0.0; % NG
	46801	 6.5	 0.0	 0.0	 0.0	 1.0	 6.75	 0	 6.5	 2.0	 0.0	 0.0	 0.0	 0.0	 0.0	 0.0	 0.0	 0.0	 0.0	 0.0	 0.0; % NG
	46854	 3.2	 0.0	 0.0	 0.0	 1.0	 3.2	 0	 3.2	 3.2	 0.0	 0.0	 0.0	 0.0	 0.0	 0.0	 0.0	 0.0	 0.0	 0.0	 0.0; % NG
	46870	 0.75	 -1.0	 -1.0	 -1.0	 1.0	 4.6	 1	 2.5	 0.0	 0.0	 0.0	 0.0	 0.0	 0.0	 0.0	 0.0	 0.0	 0.0	 0.0	 0.0; % PEL
	46873	 3.75	 0.0	 0.0	 0.0	 1.0	 15.0	 1	 12.5	 0.0	 0.0	 0.0	 0.0	 0.0	 0.0	 0.0	 0.0	 0.0	 0.0	 0.0	 0.0; % NG
	46874	 4.5	 -5.0	 -5.0	 -5.0	 1.0	 17.868	 1	 15.0	 0.0	 0.0	 0.0	 0.0	 0.0	 0.0	 0.0	 0.0	 0.0	 0.0	 0.0	 0.0; % COW
	46875	 2.4	 0.0	 0.0	 0.0	 1.0	 3.0	 0	 2.4	 0.0	 0.0	 0.0	 0.0	 0.0	 0.0	 0.0	 0.0	 0.0	 0.0	 0.0	 0.0; % PEL
	47871	 14.4	 -5.941	 16.0	 -16.0	 1.05	 53.44	 1	 48.0	 0.0	 0.0	 0.0	 0.0	 0.0	 0.0	 0.0	 0.0	 0.0	 0.0	 0.0	 0.0; % NG
	47872	 9.18	 0.0	 0.0	 0.0	 1.05	 28.39	 1	 30.6	 0.0	 0.0	 0.0	 0.0	 0.0	 0.0	 0.0	 0.0	 0.0	 0.0	 0.0	 0.0; % NG
	47873	 1.746	 0.0	 0.0	 0.0	 1.05	 6.68	 1	 5.82	 0.0	 0.0	 0.0	 0.0	 0.0	 0.0	 0.0	 0.0	 0.0	 0.0	 0.0	 0.0; % COW
	49474	 120.0	 69.215	 93.0	 -59.0	 1.075	 181.7	 1	 154.3	 55.0	 0.0	 0.0	 0.0	 0.0	 0.0	 0.0	 0.0	 0.0	 0.0	 0.0	 0.0; % NG
	49604	 0.7	 0.0	 0.0	 0.0	 1.0	 1.0	 0	 0.7	 0.0	 0.0	 0.0	 0.0	 0.0	 0.0	 0.0	 0.0	 0.0	 0.0	 0.0	 0.0; % PEL
	49672	 0.9	 0.0	 0.0	 0.0	 1.04	 3.34	 1	 3.0	 0.0	 0.0	 0.0	 0.0	 0.0	 0.0	 0.0	 0.0	 0.0	 0.0	 0.0	 0.0; % NG
	49971	 9.45	 0.0	 0.0	 0.0	 1.02	 32.0	 1	 31.5	 0.0	 0.0	 0.0	 0.0	 0.0	 0.0	 0.0	 0.0	 0.0	 0.0	 0.0	 0.0; % PEL
	49973	 2.07	 1.4	 1.4	 -1.4	 1.02	 6.9	 1	 6.9	 0.0	 0.0	 0.0	 0.0	 0.0	 0.0	 0.0	 0.0	 0.0	 0.0	 0.0	 0.0; % PEL
	49975	 1.26	 -1.38	 -1.38	 -1.79	 1.02	 4.6	 1	 4.2	 0.0	 0.0	 0.0	 0.0	 0.0	 0.0	 0.0	 0.0	 0.0	 0.0	 0.0	 0.0; % PEL
	49976	 2.76	 2.0	 2.0	 -2.0	 1.02	 9.2	 1	 9.2	 0.0	 0.0	 0.0	 0.0	 0.0	 0.0	 0.0	 0.0	 0.0	 0.0	 0.0	 0.0; % NG
	49980	 0.18	 0.0	 0.0	 0.0	 1.02	 2.3	 1	 0.6	 0.0	 0.0	 0.0	 0.0	 0.0	 0.0	 0.0	 0.0	 0.0	 0.0	 0.0	 0.0; % PEL
	50071	 2.295	 0.0	 0.0	 0.0	 1.05	 7.65	 1	 7.65	 0.0	 0.0	 0.0	 0.0	 0.0	 0.0	 0.0	 0.0	 0.0	 0.0	 0.0	 0.0; % NG
...
];

%% generator cost data
%	2	startup	shutdown	n	c(n-1)	...	c0
mpc.gencost = [
	2	 0.0	 0.0	 3	   0.000000	   1.575724	   0.000000; % NG
	2	 0.0	 0.0	 3	   0.000000	   0.904694	   0.000000; % NG
	2	 0.0	 0.0	 3	   0.000000	   0.922960	   0.000000; % NG
	2	 0.0	 0.0	 3	   0.000000	   1.017366	   0.000000; % NG
	2	 0.0	 0.0	 3	   0.000000	   1.179233	   0.000000; % NG
	2	 0.0	 0.0	 3	   0.000000	   6.758120	   0.000000; % PEL
	2	 0.0	 0.0	 3	   0.000000	   1.068702	   0.000000; % NG
	2	 0.0	 0.0	 3	   0.000000	   1.289449	   0.000000; % NG
	2	 0.0	 0.0	 3	   0.000000	   0.873016	   0.000000; % NG
	2	 0.0	 0.0	 3	   0.000000	   0.994466	   0.000000; % NG
	2	 0.0	 0.0	 3	   0.000000	   1.209761	   0.000000; % NG
	2	 0.0	 0.0	 3	   0.000000	   6.730639	   0.000000; % PEL
	2	 0.0	 0.0	 3	   0.000000	   0.591316	   0.000000; % NG
	2	 0.0	 0.0	 3	   0.000000	   6.605148	   0.000000; % PEL
	2	 0.0	 0.0	 3	   0.000000	   0.989531	   0.000000; % NG
	2	 0.0	 0.0	 3	   0.000000	   6.286101	   0.000000; % PEL
	2	 0.0	 0.0	 3	   0.000000	   0.815683	   0.000000; % COW
	2	 0.0	 0.0	 3	   0.000000	   1.564347	   0.000000; % NG
	2	 0.0	 0.0	 3	   0.000000	   0.894853	   0.000000; % NG
	2	 0.0	 0.0	 3	   0.000000	   0.706260	   0.000000; % COW
	2	 0.0	 0.0	 3	   0.000000	   7.169056	   0.000000; % PEL
	2	 0.0	 0.0	 3	   0.000000	   1.405515	   0.000000; % NG
	2	 0.0	 0.0	 3	   0.000000	   1.386822	   0.000000; % NG
	2	 0.0	 0.0	 3	   0.000000	   1.145897	   0.000000; % NG
	2	 0.0	 0.0	 3	   0.000000	   0.728825	   0.000000; % COW
	2	 0.0	 0.0	 3	   0.000000	   1.016804	   0.000000; % NG
	2	 0.0	 0.0	 3	   0.000000	   7.688657	   0.000000; % PEL
	2	 0.0	 0.0	 3	   0.000000	   6.532834	   0.000000; % PEL
	2	 0.0	 0.0	 3	   0.000000	   0.952029	   0.000000; % NG
	2	 0.0	 0.0	 3	   0.000000	   1.005856	   0.000000; % NG
	2	 0.0	 0.0	 3	   0.000000	   0.632403	   0.000000; % NG
	2	 0.0	 0.0	 3	   0.000000	   6.729344	   0.000000; % PEL
	2	 0.0	 0.0	 3	   0.000000	   6.485383	   0.000000; % PEL
	2	 0.0	 0.0	 3	   0.000000	   1.338710	   0.000000; % NG
	2	 0.0	 0.0	 3	   0.000000	   7.465790	   0.000000; % PEL
	2	 0.0	 0.0	 3	   0.000000	   0.901953	   0.000000; % NG
	2	 0.0	 0.0	 3	   0.000000	   0.930636	   0.000000; % NG
	2	 0.0	 0.0	 3	   0.000000	   6.828005	   0.000000; % PEL
	2	 0.0	 0.0	 3	   0.000000	   1.068754	   0.000000; % NG
	2	 0.0	 0.0	 3	   0.000000	   6.574354	   0.000000; % PEL
	2	 0.0	 0.0	 3	   0.000000	   1.396266	   0.000000; % NG
	2	 0.0	 0.0	 3	   0.000000	   0.812707	   0.000000; % NG
	2	 0.0	 0.0	 3	   0.000000	   6.886088	   0.000000; % PEL
	2	 0.0	 0.0	 3	   0.000000	   0.858615	   0.000000; % NG
	2	 0.0	 0.0	 3	   0.000000	   1.035044	   0.000000; % NG
	2	 0.0	 0.0	 3	   0.000000	   6.785288	   0.000000; % PEL
	2	 0.0	 0.0	 3	   0.000000	   6.792588	   0.000000; % PEL
	2	 0.0	 0.0	 3	   0.000000	   1.016037	   0.000000; % NG
	2	 0.0	 0.0	 3	   0.000000	   0.805362	   0.000000; % NG
	2	 0.0	 0.0	 3	   0.000000	   6.930461	   0.000000; % PEL
	2	 0.0	 0.0	 3	   0.000000	   0.886255	   0.000000; % NG
	2	 0.0	 0.0	 3	   0.000000	   1.120273	   0.000000; % NG
	2	 0.0	 0.0	 3	   0.000000	   6.997279	   0.000000; % PEL
	2	 0.0	 0.0	 3	   0.000000	   0.752290	   0.000000; % NG
	2	 0.0	 0.0	 3	   0.000000	   0.985562	   0.000000; % COW
	2	 0.0	 0.0	 3	   0.000000	   0.896113	   0.000000; % NG
	2	 0.0	 0.0	 3	   0.000000	   6.603091	   0.000000; % PEL
	2	 0.0	 0.0	 3	   0.000000	   0.683577	   0.000000; % COW
	2	 0.0	 0.0	 3	   0.000000	   7.156848	   0.000000; % PEL
	2	 0.0	 0.0	 3	   0.000000	   1.049306	   0.000000; % NG
	2	 0.0	 0.0	 3	   0.000000	   0.793175	   0.000000; % NG
	2	 0.0	 0.0	 3	   0.000000	   6.045560	   0.000000; % PEL
	2	 0.0	 0.0	 3	   0.000000	   7.104458	   0.000000; % PEL
	2	 0.0	 0.0	 3	   0.000000	   6.939543	   0.000000; % PEL
	2	 0.0	 0.0	 3	   0.000000	   6.493353	   0.000000; % PEL
	2	 0.0	 0.0	 3	   0.000000	   1.205574	   0.000000; % NG
	2	 0.0	 0.0	 3	   0.000000	   0.532626	   0.000000; % NG
	2	 0.0	 0.0	 3	   0.000000	   6.470270	   0.000000; % PEL
	2	 0.0	 0.0	 3	   0.000000	   0.000000	   0.000000; % SYNC
	2	 0.0	 0.0	 3	   0.000000	   6.953756	   0.000000; % PEL
	2	 0.0	 0.0	 3	   0.000000	   0.913791	   0.000000; % NG
	2	 0.0	 0.0	 3	   0.000000	   0.929165	   0.000000; % NG
	2	 0.0	 0.0	 3	   0.000000	   0.719653	   0.000000; % NG
	2	 0.0	 0.0	 3	   0.000000	   6.601570	   0.000000; % PEL
	2	 0.0	 0.0	 3	   0.000000	   6.932763	   0.000000; % PEL
	2	 0.0	 0.0	 3	   0.000000	   0.981173	   0.000000; % NG
	2	 0.0	 0.0	 3	   0.000000	   1.078377	   0.000000; % NG
	2	 0.0	 0.0	 3	   0.000000	   6.507997	   0.000000; % PEL
	2	 0.0	 0.0	 3	   0.000000	   1.271608	   0.000000; % NG
	2	 0.0	 0.0	 3	   0.000000	   1.179011	   0.000000; % NG
	2	 0.0	 0.0	 3	   0.000000	   6.409713	   0.000000; % PEL
	2	 0.0	 0.0	 3	   0.000000	   1.016042	   0.000000; % NG
	2	 0.0	 0.0	 3	   0.000000	   7.080544	   0.000000; % PEL
	2	 0.0	 0.0	 3	   0.000000	   1.333118	   0.000000; % NG
	2	 0.0	 0.0	 3	   0.000000	   6.676658	   0.000000; % PEL
	2	 0.0	 0.0	 3	   0.000000	   6.670131	   0.000000; % PEL
	2	 0.0	 0.0	 3	   0.000000	   1.084744	   0.000000; % NG
	2	 0.0	 0.0	 3	   0.000000	   7.527218	   0.000000; % PEL
	2	 0.0	 0.0	 3	   0.000000	   7.286972	   0.000000; % PEL
	2	 0.0	 0.0	 3	   0.000000	   6.590907	   0.000000; % PEL
	2	 0.0	 0.0	 3	   0.000000	   0.703933	   0.000000; % NG
	2	 0.0	 0.0	 3	   0.000000	   7.006550	   0.000000; % PEL
	2	 0.0	 0.0	 3	   0.000000	   1.237920	   0.000000; % NG
	2	 0.0	 0.0	 3	   0.000000	   6.594462	   0.000000; % PEL
	2	 0.0	 0.0	 3	   0.000000	   6.851699	   0.000000; % PEL
	2	 0.0	 0.0	 3	   0.000000	   1.047780	   0.000000; % NG
	2	 0.0	 0.0	 3	   0.000000	   6.117342	   0.000000; % PEL
	2	 0.0	 0.0	 3	   0.000000	   6.689625	   0.000000; % PEL
	2	 0.0	 0.0	 3	   0.000000	   0.971921	   0.000000; % NG
	2	 0.0	 0.0	 3	   0.000000	   6.847450	   0.000000; % PEL
	2	 0.0	 0.0	 3	   0.000000	   7.357556	   0.000000; % PEL
	2	 0.0	 0.0	 3	   0.000000	   0.862954	   0.000000; % NG
	2	 0.0	 0.0	 3	   0.000000	   6.830645	   0.000000; % PEL
	2	 0.0	 0.0	 3	   0.000000	   1.251508	   0.000000; % NG
	2	 0.0	 0.0	 3	   0.000000	   0.000000	   0.000000; % SYNC
	2	 0.0	 0.0	 3	   0.000000	   7.035041	   0.000000; % PEL
	2	 0.0	 0.0	 3	   0.000000	   1.572235	   0.000000; % NG
	2	 0.0	 0.0	 3	   0.000000	   7.179290	   0.000000; % PEL
	2	 0.0	 0.0	 3	   0.000000	   0.771972	   0.000000; % NG
	2	 0.0	 0.0	 3	   0.000000	   1.084235	   0.000000; % COW
	2	 0.0	 0.0	 3	   0.000000	   1.341484	   0.000000; % NG
	2	 0.0	 0.0	 3	   0.000000	   1.049245	   0.000000; % NG
	2	 0.0	 0.0	 3	   0.000000	   1.081074	   0.000000; % COW
	2	 0.0	 0.0	 3	   0.000000	   1.015123	   0.000000; % NG
	2	 0.0	 0.0	 3	   0.000000	   1.139418	   0.000000; % NG
	2	 0.0	 0.0	 3	   0.000000	   0.978401	   0.000000; % NG
	2	 0.0	 0.0	 3	   0.000000	   1.227512	   0.000000; % NG
	2	 0.0	 0.0	 3	   0.000000	   1.144684	   0.000000; % COW
	2	 0.0	 0.0	 3	   0.000000	   0.969296	   0.000000; % NG
	2	 0.0	 0.0	 3	   0.000000	   6.881122	   0.000000; % PEL
	2	 0.0	 0.0	 3	   0.000000	   0.972197	   0.000000; % NG
	2	 0.0	 0.0	 3	   0.000000	   0.369269	   0.000000; % COW
	2	 0.0	 0.0	 3	   0.000000	   0.616215	   0.000000; % NG
	2	 0.0	 0.0	 3	   0.000000	   0.668277	   0.000000; % COW
	2	 0.0	 0.0	 3	   0.000000	   0.336618	   0.000000; % NG
	2	 0.0	 0.0	 3	   0.000000	   1.225867	   0.000000; % NG
	2	 0.0	 0.0	 3	   0.000000	   6.906794	   0.000000; % PEL
	2	 0.0	 0.0	 3	   0.000000	   7.420694	   0.000000; % PEL
	2	 0.0	 0.0	 3	   0.000000	   0.552469	   0.000000; % COW
	2	 0.0	 0.0	 3	   0.000000	   1.033086	   0.000000; % NG
	2	 0.0	 0.0	 3	   0.000000	   0.845378	   0.000000; % COW
	2	 0.0	 0.0	 3	   0.000000	   6.717593	   0.000000; % PEL
	2	 0.0	 0.0	 3	   0.000000	   7.190525	   0.000000; % PEL
	2	 0.0	 0.0	 3	   0.000000	   0.541974	   0.000000; % COW
	2	 0.0	 0.0	 3	   0.000000	   1.165929	   0.000000; % NG
	2	 0.0	 0.0	 3	   0.000000	   7.113045	   0.000000; % PEL
	2	 0.0	 0.0	 3	   0.000000	   1.316044	   0.000000; % NG
	2	 0.0	 0.0	 3	   0.000000	   1.301182	   0.000000; % NG
	2	 0.0	 0.0	 3	   0.000000	   6.605434	   0.000000; % PEL
	2	 0.0	 0.0	 3	   0.000000	   6.713714	   0.000000; % PEL
	2	 0.0	 0.0	 3	   0.000000	   7.305921	   0.000000; % PEL
	2	 0.0	 0.0	 3	   0.000000	   6.909508	   0.000000; % PEL
	2	 0.0	 0.0	 3	   0.000000	   7.504124	   0.000000; % PEL
	2	 0.0	 0.0	 3	   0.000000	   1.481546	   0.000000; % NG
	2	 0.0	 0.0	 3	   0.000000	   0.975384	   0.000000; % NG
	2	 0.0	 0.0	 3	   0.000000	   1.133070	   0.000000; % NG
	2	 0.0	 0.0	 3	   0.000000	   7.185307	   0.000000; % PEL
	2	 0.0	 0.0	 3	   0.000000	   0.767112	   0.000000; % COW
	2	 0.0	 0.0	 3	   0.000000	   1.382261	   0.000000; % NG
	2	 0.0	 0.0	 3	   0.000000	   1.289510	   0.000000; % NG
	2	 0.0	 0.0	 3	   0.000000	   6.573584	   0.000000; % PEL
	2	 0.0	 0.0	 3	   0.000000	   0.947743	   0.000000; % NG
	2	 0.0	 0.0	 3	   0.000000	   1.154917	   0.000000; % NG
	2	 0.0	 0.0	 3	   0.000000	   6.631416	   0.000000; % PEL
	2	 0.0	 0.0	 3	   0.000000	   6.919867	   0.000000; % PEL
	2	 0.0	 0.0	 3	   0.000000	   0.989365	   0.000000; % NG
	2	 0.0	 0.0	 3	   0.000000	   1.069045	   0.000000; % NG
	2	 0.0	 0.0	 3	   0.000000	   0.881855	   0.000000; % NG
	2	 0.0	 0.0	 3	   0.000000	   6.903326	   0.000000; % PEL
	2	 0.0	 0.0	 3	   0.000000	   0.862912	   0.000000; % NG
	2	 0.0	 0.0	 3	   0.000000	   1.073572	   0.000000; % COW
	2	 0.0	 0.0	 3	   0.000000	   0.628830	   0.000000; % COW
	2	 0.0	 0.0	 3	   0.000000	   0.971081	   0.000000; % NG
	2	 0.0	 0.0	 3	   0.000000	   0.878633	   0.000000; % NG
	2	 0.0	 0.0	 3	   0.000000	   7.167295	   0.000000; % PEL
	2	 0.0	 0.0	 3	   0.000000	   1.148894	   0.000000; % NG
	2	 0.0	 0.0	 3	   0.000000	   1.125384	   0.000000; % NG
	2	 0.0	 0.0	 3	   0.000000	   1.012718	   0.000000; % NG
	2	 0.0	 0.0	 3	   0.000000	   1.539499	   0.000000; % NG
	2	 0.0	 0.0	 3	   0.000000	   0.848079	   0.000000; % COW
	2	 0.0	 0.0	 3	   0.000000	   0.792523	   0.000000; % NG
	2	 0.0	 0.0	 3	   0.000000	   0.591070	   0.000000; % COW
	2	 0.0	 0.0	 3	   0.000000	   1.075217	   0.000000; % COW
	2	 0.0	 0.0	 3	   0.000000	   6.683000	   0.000000; % PEL
	2	 0.0	 0.0	 3	   0.000000	   1.035805	   0.000000; % NG
	2	 0.0	 0.0	 3	   0.000000	   6.737763	   0.000000; % PEL
	2	 0.0	 0.0	 3	   0.000000	   6.927777	   0.000000; % PEL
	2	 0.0	 0.0	 3	   0.000000	   6.402984	   0.000000; % PEL
	2	 0.0	 0.0	 3	   0.000000	   6.657171	   0.000000; % PEL
	2	 0.0	 0.0	 3	   0.000000	   1.230609	   0.000000; % NG
	2	 0.0	 0.0	 3	   0.000000	   1.325811	   0.000000; % NG
	2	 0.0	 0.0	 3	   0.000000	   1.078484	   0.000000; % NG
	2	 0.0	 0.0	 3	   0.000000	   1.036954	   0.000000; % NG
	2	 0.0	 0.0	 3	   0.000000	   1.024634	   0.000000; % NG
	2	 0.0	 0.0	 3	   0.000000	   6.832956	   0.000000; % PEL
	2	 0.0	 0.0	 3	   0.000000	   1.242624	   0.000000; % NG
	2	 0.0	 0.0	 3	   0.000000	   0.827449	   0.000000; % COW
	2	 0.0	 0.0	 3	   0.000000	   6.761910	   0.000000; % PEL
	2	 0.0	 0.0	 3	   0.000000	   1.019282	   0.000000; % NG
	2	 0.0	 0.0	 3	   0.000000	   1.073216	   0.000000; % NG
	2	 0.0	 0.0	 3	   0.000000	   0.800209	   0.000000; % COW
	2	 0.0	 0.0	 3	   0.000000	   1.366065	   0.000000; % NG
	2	 0.0	 0.0	 3	   0.000000	   7.210805	   0.000000; % PEL
	2	 0.0	 0.0	 3	   0.000000	   0.920921	   0.000000; % NG
	2	 0.0	 0.0	 3	   0.000000	   7.437834	   0.000000; % PEL
	2	 0.0	 0.0	 3	   0.000000	   7.404369	   0.000000; % PEL
	2	 0.0	 0.0	 3	   0.000000	   6.575978	   0.000000; % PEL
	2	 0.0	 0.0	 3	   0.000000	   1.288649	   0.000000; % NG
	2	 0.0	 0.0	 3	   0.000000	   7.014986	   0.000000; % PEL
	2	 0.0	 0.0	 3	   0.000000	   1.056738	   0.000000; % NG
...
];

%% branch data
%	fbus	tbus	r	x	b	rateA	rateB	rateC	ratio	angle	status	angmin	angmax
mpc.branch = [
	11	 42404	 0.0036	 0.00391	 0.00207	 100.0	 100.0	 110.0	 0.0	 0.0	 1	 -30.0	 30.0;
	12	 25404	 0.00534	 0.00795	 0.00407	 3604	 3604	 3604	 0.0	 0.0	 1	 -30.0	 30.0;
	12	 25404	 0.00594	 0.00866	 0.00435	 3287	 3287	 3287	 0.0	 0.0	 1	 -30.0	 30.0;
	12	 46504	 0.02132	 0.02114	 0.00329	 1149	 1149	 1149	 0.0	 0.0	 1	 -30.0	 30.0;
	12	 46504	 0.01937	 0.01703	 0.00256	 1338	 1338	 1338	 0.0	 0.0	 1	 -30.0	 30.0;
	1021	 2121	 0.0286	 0.067	 0.0059	 105.0	 105.0	 115.5	 0.0	 0.0	 1	 -30.0	 30.0;
	1021	 2361	 0.0513	 0.1172	 0.0106	 105.0	 105.0	 115.5	 0.0	 0.0	 1	 -30.0	 30.0;
	1021	 3541	 0.0071	 0.037	 0.0116	 99.0	 99.0	 108.9	 0.0	 0.0	 1	 -30.0	 30.0;
	1021	 10210	 0.0	 0.0001	 0.0	 999.0	 999.0	 1098.9	 0.0	 0.0	 1	 -30.0	 30.0;
	1021	 10261	 0.0	 0.0001	 0.0	 105.0	 105.0	 115.5	 0.0	 0.0	 1	 -30.0	 30.0;
	1041	 5481	 0.0049	 0.0107	 0.001	 105.0	 105.0	 115.5	 0.0	 0.0	 1	 -30.0	 30.0;
	1042	 1052	 0.0	 0.0001	 0.0	 9999.0	 9999.0	 10998.9	 0.0	 0.0	 0	 -30.0	 30.0;
	1042	 1062	 0.0	 0.0001	 0.0	 593.0	 593.0	 652.3	 0.0	 0.0	 1	 -30.0	 30.0;
	1042	 1072	 0.0001	 0.0006	 0.0384	 593.0	 593.0	 652.3	 0.0	 0.0	 1	 -30.0	 30.0;
	1042	 3202	 0.003	 0.0222	 0.0335	 434.0	 434.0	 477.4	 0.0	 0.0	 1	 -30.0	 30.0;
	1042	 4722	 0.0012	 0.0078	 0.2591	 434.0	 434.0	 477.4	 0.0	 0.0	 1	 -30.0	 30.0;
	1042	 35771	 0.0001	 0.0004	 0.0265	 593.0	 593.0	 652.3	 0.0	 0.0	 1	 -30.0	 30.0;
	1052	 1062	 0.0	 0.0001	 0.0	 999.0	 999.0	 1098.9	 0.0	 0.0	 0	 -30.0	 30.0;
	1052	 2852	 0.0002	 0.0015	 0.1035	 593.0	 593.0	 652.3	 0.0	 0.0	 1	 -30.0	 30.0;
	1052	 3202	 0.003	 0.0222	 0.0335	 434.0	 434.0	 477.4	 0.0	 0.0	 1	 -30.0	 30.0;
	1061	 10619	 0.0004	 0.0008	 0.0001	 105.0	 105.0	 115.5	 0.0	 0.0	 1	 -30.0	 30.0;
	1062	 1072	 0.0	 0.0001	 0.0	 999.0	 999.0	 1098.9	 0.0	 0.0	 0	 -30.0	 30.0;
	1071	 2231	 0.0125	 0.0276	 0.0026	 105.0	 105.0	 115.5	 0.0	 0.0	 1	 -30.0	 30.0;
	1071	 2361	 0.0594	 0.1314	 0.0123	 105.0	 105.0	 115.5	 0.0	 0.0	 1	 -30.0	 30.0;
	1071	 4941	 0.0718	 0.1589	 0.0148	 105.0	 105.0	 115.5	 0.0	 0.0	 1	 -30.0	 30.0;
	1081	 32810	 0.0039	 0.0123	 0.0035	 68.0	 112.0	 123.2	 0.0	 0.0	 1	 -30.0	 30.0;
	1101	 2161	 0.0031	 0.0069	 0.0006	 45.0	 105.0	 115.5	 0.0	 0.0	 1	 -30.0	 30.0;
	1121	 1301	 0.0102	 0.0787	 0.0071	 136.0	 136.0	 149.6	 0.0	 0.0	 1	 -30.0	 30.0;
	1121	 1541	 0.0207	 0.0952	 0.0102	 137.0	 178.0	 195.8	 0.0	 0.0	 1	 -30.0	 30.0;
	1121	 4901	 0.0035	 0.0077	 0.0008	 34.0	 34.0	 37.4	 0.0	 0.0	 1	 -30.0	 30.0;
	1122	 1742	 0.0062	 0.0462	 0.0697	 434.0	 434.0	 477.4	 0.0	 0.0	 1	 -30.0	 30.0;
	1122	 3642	 0.0046	 0.0338	 0.051	 434.0	 434.0	 477.4	 0.0	 0.0	 1	 -30.0	 30.0;
	1141	 3501	 0.054	 0.123	 0.0116	 105.0	 105.0	 115.5	 0.0	 0.0	 1	 -30.0	 30.0;
	1141	 4941	 0.0135	 0.0696	 0.0113	 137.0	 178.0	 195.8	 0.0	 0.0	 1	 -30.0	 30.0;
	1141	 11461	 0.0	 0.0001	 0.0	 105.0	 105.0	 115.5	 0.0	 0.0	 1	 -30.0	 30.0;
	1161	 1781	 0.001	 0.002	 0.0011	 96.0	 96.0	 105.6	 0.0	 0.0	 1	 -30.0	 30.0;
	1161	 3901	 0.0173	 0.0894	 0.0097	 178.0	 178.0	 195.8	 0.0	 0.0	 1	 -30.0	 30.0;
	1161	 5051	 0.0006	 0.0012	 0.0061	 120.0	 120.0	 132.0	 0.0	 0.0	 1	 -30.0	 30.0;
	1161	 5071	 0.0006	 0.0012	 0.0061	 120.0	 120.0	 132.0	 0.0	 0.0	 1	 -30.0	 30.0;
	1161	 17810	 0.001	 0.0021	 0.0012	 96.0	 96.0	 105.6	 0.0	 0.0	 1	 -30.0	 30.0;
	1161	 51410	 0.0214	 0.1105	 0.012	 178.0	 178.0	 195.8	 0.0	 0.0	 1	 -30.0	 30.0;
	1181	 1861	 0.0644	 0.1424	 0.0133	 105.0	 105.0	 115.5	 0.0	 0.0	 1	 -30.0	 30.0;
	1181	 2821	 0.0193	 0.0994	 0.0108	 178.0	 178.0	 195.8	 0.0	 0.0	 1	 -30.0	 30.0;
	1181	 4221	 0.0381	 0.1969	 0.0214	 120.0	 120.0	 132.0	 0.0	 0.0	 1	 -30.0	 30.0;
	1181	 4961	 0.0292	 0.0645	 0.006	 80.0	 80.0	 88.0	 0.0	 0.0	 1	 -30.0	 30.0;
	1181	 4961	 0.0148	 0.0763	 0.0097	 178.0	 178.0	 195.8	 0.0	 0.0	 1	 -30.0	 30.0;
	1201	 2561	 0.0047	 0.0101	 0.0548	 120.0	 120.0	 132.0	 0.0	 0.0	 1	 -30.0	 30.0;
	1201	 3781	 0.0026	 0.0055	 0.0298	 120.0	 120.0	 132.0	 0.0	 0.0	 1	 -30.0	 30.0;
	1221	 1901	 0.0389	 0.086	 0.008	 105.0	 105.0	 115.5	 0.0	 0.0	 1	 -30.0	 30.0;
	1221	 4481	 0.0414	 0.0915	 0.0086	 105.0	 105.0	 115.5	 0.0	 0.0	 1	 -30.0	 30.0;
	1231	 1841	 0.0111	 0.03	 0.1366	 68.0	 116.0	 127.6	 0.0	 0.0	 1	 -30.0	 30.0;
	1251	 2361	 0.0373	 0.0826	 0.0077	 105.0	 105.0	 115.5	 0.0	 0.0	 1	 -30.0	 30.0;
	1251	 52219	 0.0305	 0.0674	 0.0063	 105.0	 105.0	 115.5	 0.0	 0.0	 1	 -30.0	 30.0;
	1271	 2041	 0.0106	 0.0546	 0.006	 178.0	 178.0	 195.8	 0.0	 0.0	 1	 -30.0	 30.0;
	1271	 2181	 0.0126	 0.065	 0.0071	 178.0	 178.0	 195.8	 0.0	 0.0	 1	 -30.0	 30.0;
	1281	 2221	 0.0426	 0.0943	 0.0098	 68.0	 105.0	 115.5	 0.0	 0.0	 1	 -30.0	 30.0;
	1301	 17411	 0.0148	 0.1159	 0.0104	 136.0	 136.0	 149.6	 0.0	 0.0	 1	 -30.0	 30.0;
	1321	 13219	 0.0006	 0.0017	 0.0002	 136.0	 136.0	 149.6	 0.0	 0.0	 1	 -30.0	 30.0;
	1341	 1701	 0.0533	 0.1178	 0.011	 105.0	 105.0	 115.5	 0.0	 0.0	 1	 -30.0	 30.0;
	1351	 4081	 0.0121	 0.0367	 0.031	 120.0	 120.0	 132.0	 0.0	 0.0	 1	 -30.0	 30.0;
	1351	 4201	 0.0073	 0.0214	 0.0295	 120.0	 120.0	 132.0	 0.0	 0.0	 1	 -30.0	 30.0;
...